<?xml version="1.0" encoding="UTF-8"?>

<!-- generated on 2024-07-17 18:20:22.771218 by osmWebWizard.py v1_19_0+0000-baa66a0f364
<configuration>
    <net-file value="C:\Users\Pichau\Desktop\Faculdade\UFC\BOLSA\2024Project\2024-07-17-18-20-03\osm.net.xml.gz"/>
    <output-trip-file value="C:\Users\Pichau\Desktop\Faculdade\UFC\BOLSA\2024Project\2024-07-17-18-20-03\osm.passenger.trips.xml"/>
    <route-file value="C:\Users\Pichau\Desktop\Faculdade\UFC\BOLSA\2024Project\2024-07-17-18-20-03\osm.passenger.rou.xml"/>
    <prefix value="veh"/>
    <trip-attributes value="departLane=&quot;best&quot;"/>
    <fringe-start-attributes value="departSpeed=&quot;max&quot;"/>
    <vehicle-class value="passenger"/>
    <lanes value="True"/>
    <fringe-factor value="7"/>
    <allow-fringe.min-length value="1000.0"/>
    <via-edge-types value="highway.motorway,highway.motorway_link,highway.trunk_link,highway.primary_link,highway.secondary_link,highway.tertiary_link"/>
    <min-distance value="300.0"/>
    <min-distance.fringe value="10.0"/>
    <remove-loops value="True"/>
    <validate value="True"/>
    <insertion-density value="15.0"/>
</configuration>
-->

<!-- generated on 2024-07-17 18:20:22 by Eclipse SUMO duarouter Version 1.19.0
<configuration xmlns:xsi="http://www.w3.org/2001/XMLSchema-instance" xsi:noNamespaceSchemaLocation="http://sumo.dlr.de/xsd/duarouterConfiguration.xsd">

    <input>
        <net-file value="C:\Users\Pichau\Desktop\Faculdade\UFC\BOLSA\2024Project\2024-07-17-18-20-03\osm.net.xml.gz"/>
        <route-files value="C:\Users\Pichau\Desktop\Faculdade\UFC\BOLSA\2024Project\2024-07-17-18-20-03\osm.passenger.trips.xml"/>
    </input>

    <output>
        <output-file value="C:\Users\Pichau\Desktop\Faculdade\UFC\BOLSA\2024Project\2024-07-17-18-20-03\osm.passenger.trips.xml.tmp"/>
        <alternatives-output value="NUL"/>
        <write-trips value="true"/>
    </output>

    <processing>
        <remove-loops value="true"/>
    </processing>

    <time>
        <begin value="0.0"/>
        <end value="3600.0"/>
    </time>

    <report>
        <no-warnings value="true"/>
        <ignore-errors value="true"/>
        <no-step-log value="true"/>
    </report>

</configuration>
-->

<routes xmlns:xsi="http://www.w3.org/2001/XMLSchema-instance" xsi:noNamespaceSchemaLocation="http://sumo.dlr.de/xsd/routes_file.xsd">
    <vType id="veh_passenger" vClass="passenger"/>
    <trip id="veh1" type="veh_passenger" depart="6.18" departLane="best" departSpeed="max" from="1278955261#0" to="-633036598#2"/>
    <trip id="veh3" type="veh_passenger" depart="18.53" departLane="best" from="759583924#0" to="-281333091"/>
    <trip id="veh4" type="veh_passenger" depart="24.71" departLane="best" departSpeed="max" from="234416385#0" to="-184495322#0"/>
    <trip id="veh5" type="veh_passenger" depart="30.89" departLane="best" departSpeed="max" from="-590528032#1" to="401016556#4"/>
    <trip id="veh9" type="veh_passenger" depart="55.60" departLane="best" departSpeed="max" from="184495320#0" to="-49302750#5"/>
    <trip id="veh10" type="veh_passenger" depart="61.78" departLane="best" departSpeed="max" from="874174967#0" to="184495320#1"/>
    <trip id="veh13" type="veh_passenger" depart="80.31" departLane="best" departSpeed="max" from="49302772#0" to="442934133#2"/>
    <trip id="veh15" type="veh_passenger" depart="92.66" departLane="best" departSpeed="max" from="184495322#0" to="436860976#6"/>
    <trip id="veh19" type="veh_passenger" depart="117.38" departLane="best" from="-281333095#0" to="-921584298"/>
    <trip id="veh22" type="veh_passenger" depart="135.91" departLane="best" from="439138548#0" to="436860978#0"/>
    <trip id="veh24" type="veh_passenger" depart="148.26" departLane="best" from="914799109#1" to="436931475#2"/>
    <trip id="veh25" type="veh_passenger" depart="154.44" departLane="best" from="401016556#2" to="439138548#2"/>
    <trip id="veh26" type="veh_passenger" depart="160.62" departLane="best" departSpeed="max" from="49540948#0" to="443380448#6"/>
    <trip id="veh30" type="veh_passenger" depart="185.33" departLane="best" departSpeed="max" from="1278955261#0" to="1009738286"/>
    <trip id="veh31" type="veh_passenger" depart="191.51" departLane="best" from="401016556#3" to="1243735272#1"/>
    <trip id="veh32" type="veh_passenger" depart="197.68" departLane="best" departSpeed="max" from="433611503" to="506555356"/>
    <trip id="veh36" type="veh_passenger" depart="222.39" departLane="best" from="443380441#3" to="436931475#2"/>
    <trip id="veh37" type="veh_passenger" depart="228.57" departLane="best" departSpeed="max" from="49302760" to="281310233#1"/>
    <trip id="veh41" type="veh_passenger" depart="253.28" departLane="best" from="440337930#3" to="436860976#1"/>
    <trip id="veh42" type="veh_passenger" depart="259.46" departLane="best" departSpeed="max" from="1278955261#0" to="436931475#2"/>
    <trip id="veh46" type="veh_passenger" depart="284.17" departLane="best" from="24411340" to="-49302772#0"/>
    <trip id="veh47" type="veh_passenger" depart="290.35" departLane="best" from="704987366#0" to="49540967#3"/>
    <trip id="veh52" type="veh_passenger" depart="321.24" departLane="best" from="-132975482#1" to="132975486"/>
    <trip id="veh57" type="veh_passenger" depart="352.13" departLane="best" from="-443380448#5" to="443380441#1"/>
    <trip id="veh58" type="veh_passenger" depart="358.30" departLane="best" departSpeed="max" from="1278955261#0" to="49540967#3"/>
    <trip id="veh64" type="veh_passenger" depart="395.37" departLane="best" departSpeed="max" from="184495320#0" to="436860978#0"/>
    <trip id="veh68" type="veh_passenger" depart="420.08" departLane="best" from="1009738285#1" to="439138548#2"/>
    <trip id="veh71" type="veh_passenger" depart="438.61" departLane="best" departSpeed="max" from="24404183#0" to="-49302750#1"/>
    <trip id="veh72" type="veh_passenger" depart="444.79" departLane="best" departSpeed="max" from="49302772#0" to="-49540941#1"/>
    <trip id="veh74" type="veh_passenger" depart="457.15" departLane="best" departSpeed="max" from="234416385#0" to="281333095#1"/>
    <trip id="veh76" type="veh_passenger" depart="469.50" departLane="best" from="914799109#0" to="-436707524#1"/>
    <trip id="veh79" type="veh_passenger" depart="488.03" departLane="best" departSpeed="max" from="234416385#0" to="1243735272#2"/>
    <trip id="veh83" type="veh_passenger" depart="512.74" departLane="best" departSpeed="max" from="49540948#0" to="-49302760"/>
    <trip id="veh86" type="veh_passenger" depart="531.28" departLane="best" departSpeed="max" from="184495322#0" to="921584296#2"/>
    <trip id="veh89" type="veh_passenger" depart="549.81" departLane="best" departSpeed="max" from="874174967#0" to="921584297#0"/>
    <trip id="veh91" type="veh_passenger" depart="562.16" departLane="best" departSpeed="max" from="-49302750#8" to="1243735272#2"/>
    <trip id="veh92" type="veh_passenger" depart="568.34" departLane="best" departSpeed="max" from="874174967#0" to="436860978#0"/>
    <trip id="veh94" type="veh_passenger" depart="580.70" departLane="best" departSpeed="max" from="-281333090" to="436860978#0"/>
    <trip id="veh97" type="veh_passenger" depart="599.23" departLane="best" from="434237030#0" to="439138548#2"/>
    <trip id="veh99" type="veh_passenger" depart="611.59" departLane="best" from="49540967#5" to="1009738286"/>
    <trip id="veh101" type="veh_passenger" depart="623.94" departLane="best" departSpeed="max" from="234416385#0" to="436860978#0"/>
    <trip id="veh103" type="veh_passenger" depart="636.30" departLane="best" departSpeed="max" from="-49540948#3" to="442934133#1"/>
    <trip id="veh104" type="veh_passenger" depart="642.47" departLane="best" departSpeed="max" from="440337930#0" to="1243735272#2"/>
    <trip id="veh107" type="veh_passenger" depart="661.01" departLane="best" departSpeed="max" from="1278955261#0" to="633036601#1"/>
    <trip id="veh108" type="veh_passenger" depart="667.18" departLane="best" departSpeed="max" from="49540944" to="442913602"/>
    <trip id="veh115" type="veh_passenger" depart="710.43" departLane="best" from="436860976#6" to="1243735272#1"/>
    <trip id="veh116" type="veh_passenger" depart="716.61" departLane="best" from="24411335#2" to="506555356"/>
    <trip id="veh118" type="veh_passenger" depart="728.96" departLane="best" departSpeed="max" from="234416385#0" to="1243735272#2"/>
    <trip id="veh122" type="veh_passenger" depart="753.67" departLane="best" departSpeed="max" from="234416385#0" to="-132975482#0"/>
    <trip id="veh126" type="veh_passenger" depart="778.38" departLane="best" from="-132975482#3" to="506555356"/>
    <trip id="veh128" type="veh_passenger" depart="790.74" departLane="best" from="-49302750#5" to="506555355#0"/>
    <trip id="veh129" type="veh_passenger" depart="796.92" departLane="best" departSpeed="max" from="218314805#0" to="436931475#1"/>
    <trip id="veh131" type="veh_passenger" depart="809.27" departLane="best" departSpeed="max" from="49540967#0" to="914799109#0"/>
    <trip id="veh136" type="veh_passenger" depart="840.16" departLane="best" departSpeed="max" from="49540967#0" to="49540948#3"/>
    <trip id="veh137" type="veh_passenger" depart="846.34" departLane="best" from="-633036598#1" to="49302767#0"/>
    <trip id="veh138" type="veh_passenger" depart="852.51" departLane="best" from="24332864#1" to="1243735272#2"/>
    <trip id="veh141" type="veh_passenger" depart="871.05" departLane="best" departSpeed="max" from="874174967#0" to="1243735272#2"/>
    <trip id="veh143" type="veh_passenger" depart="883.40" departLane="best" from="913677254" to="436860976#1"/>
    <trip id="veh144" type="veh_passenger" depart="889.58" departLane="best" from="832722405" to="-443027807#0"/>
    <trip id="veh146" type="veh_passenger" depart="901.93" departLane="best" departSpeed="max" from="874174967#0" to="1243735272#1"/>
    <trip id="veh156" type="veh_passenger" depart="963.71" departLane="best" departSpeed="max" from="440337930#0" to="184279433#3"/>
    <trip id="veh161" type="veh_passenger" depart="994.60" departLane="best" departSpeed="max" from="-443380448#6" to="281310233#0"/>
    <trip id="veh162" type="veh_passenger" depart="1000.78" departLane="best" departSpeed="max" from="874174967#0" to="439138548#2"/>
    <trip id="veh164" type="veh_passenger" depart="1013.13" departLane="best" departSpeed="max" from="132975482#0" to="132975482#4"/>
    <trip id="veh165" type="veh_passenger" depart="1019.31" departLane="best" from="-132975482#1" to="1243735272#2"/>
    <trip id="veh166" type="veh_passenger" depart="1025.49" departLane="best" from="234416385#1" to="436860978#0"/>
    <trip id="veh168" type="veh_passenger" depart="1037.84" departLane="best" from="243228616#1" to="-49540948#0"/>
    <trip id="veh169" type="veh_passenger" depart="1044.02" departLane="best" departSpeed="max" from="24404183#0" to="506555356"/>
    <trip id="veh170" type="veh_passenger" depart="1050.20" departLane="best" from="49302766#0" to="-49302760"/>
    <trip id="veh171" type="veh_passenger" depart="1056.38" departLane="best" from="49302772#1" to="443380441#3"/>
    <trip id="veh177" type="veh_passenger" depart="1093.44" departLane="best" from="-443380441#2" to="443380448#6"/>
    <trip id="veh179" type="veh_passenger" depart="1105.80" departLane="best" from="-49302772#3" to="832722404"/>
    <trip id="veh182" type="veh_passenger" depart="1124.33" departLane="best" departSpeed="max" from="24332864#0" to="49302750#8"/>
    <trip id="veh183" type="veh_passenger" depart="1130.51" departLane="best" departSpeed="max" from="440337930#0" to="921584296#2"/>
    <trip id="veh184" type="veh_passenger" depart="1136.69" departLane="best" from="49540967#5" to="436931475#0"/>
    <trip id="veh189" type="veh_passenger" depart="1167.57" departLane="best" from="1009738286" to="436931475#2"/>
    <trip id="veh191" type="veh_passenger" depart="1179.93" departLane="best" departSpeed="max" from="-281333093#1" to="1243735272#2"/>
    <trip id="veh194" type="veh_passenger" depart="1198.46" departLane="best" from="-705248736" to="441954989"/>
    <trip id="veh198" type="veh_passenger" depart="1223.17" departLane="best" departSpeed="max" from="234416385#0" to="506555356"/>
    <trip id="veh201" type="veh_passenger" depart="1241.70" departLane="best" departSpeed="max" from="401016556#0" to="436860978#0"/>
    <trip id="veh202" type="veh_passenger" depart="1247.88" departLane="best" from="234416385#6" to="-184495322#0"/>
    <trip id="veh203" type="veh_passenger" depart="1254.06" departLane="best" departSpeed="max" from="218314805#0" to="-49302760"/>
    <trip id="veh208" type="veh_passenger" depart="1284.95" departLane="best" departSpeed="max" from="-590528032#1" to="184279433#1"/>
    <trip id="veh210" type="veh_passenger" depart="1297.30" departLane="best" from="-443380441#3" to="49302772#2"/>
    <trip id="veh220" type="veh_passenger" depart="1359.08" departLane="best" from="-633036601#0" to="443380448#6"/>
    <trip id="veh222" type="veh_passenger" depart="1371.44" departLane="best" from="443380441#0" to="-443027807#0"/>
    <trip id="veh225" type="veh_passenger" depart="1389.97" departLane="best" departSpeed="max" from="132975484#0" to="439138548#2"/>
    <trip id="veh226" type="veh_passenger" depart="1396.15" departLane="best" departSpeed="max" from="874174967#0" to="24411335#2"/>
    <trip id="veh228" type="veh_passenger" depart="1408.50" departLane="best" departSpeed="max" from="442913599#0" to="436931475#2"/>
    <trip id="veh229" type="veh_passenger" depart="1414.68" departLane="best" from="-443027807#3" to="443380448#6"/>
    <trip id="veh234" type="veh_passenger" depart="1445.57" departLane="best" from="49540948#1" to="49302767#1"/>
    <trip id="veh235" type="veh_passenger" depart="1451.74" departLane="best" from="-443380441#1" to="832722405"/>
    <trip id="veh236" type="veh_passenger" depart="1457.92" departLane="best" from="436931475#0" to="49302767#1"/>
    <trip id="veh239" type="veh_passenger" depart="1476.46" departLane="best" departSpeed="max" from="1278955261#0" to="49302766#0"/>
    <trip id="veh240" type="veh_passenger" depart="1482.63" departLane="best" departSpeed="max" from="401016556#0" to="282620839"/>
    <trip id="veh242" type="veh_passenger" depart="1494.99" departLane="best" departSpeed="max" from="1278955261#0" to="49540948#2"/>
    <trip id="veh245" type="veh_passenger" depart="1513.52" departLane="best" from="49540948#1" to="-49302772#0"/>
    <trip id="veh246" type="veh_passenger" depart="1519.70" departLane="best" departSpeed="max" from="-590528032#1" to="49302750#8"/>
    <trip id="veh249" type="veh_passenger" depart="1538.23" departLane="best" from="-184279433#2" to="506555354#1"/>
    <trip id="veh250" type="veh_passenger" depart="1544.41" departLane="best" from="436707524#0" to="442934133#2"/>
    <trip id="veh252" type="veh_passenger" depart="1556.76" departLane="best" departSpeed="max" from="442913599#0" to="436931475#2"/>
    <trip id="veh253" type="veh_passenger" depart="1562.94" departLane="best" from="24411335#3" to="49302750#6"/>
    <trip id="veh254" type="veh_passenger" depart="1569.12" departLane="best" from="439431805#0" to="-633036598#1"/>
    <trip id="veh259" type="veh_passenger" depart="1600.01" departLane="best" from="-49540948#1" to="-443027807#0"/>
    <trip id="veh261" type="veh_passenger" depart="1612.36" departLane="best" departSpeed="max" from="-49302772#4" to="-49540948#1"/>
    <trip id="veh264" type="veh_passenger" depart="1630.90" departLane="best" departSpeed="max" from="1278955261#0" to="-436707525"/>
    <trip id="veh268" type="veh_passenger" depart="1655.61" departLane="best" departSpeed="max" from="24404183#0" to="281333090"/>
    <trip id="veh270" type="veh_passenger" depart="1667.96" departLane="best" departSpeed="max" from="874174967#0" to="282620839"/>
    <trip id="veh273" type="veh_passenger" depart="1686.49" departLane="best" from="401016556#4" to="1243735272#2"/>
    <trip id="veh276" type="veh_passenger" depart="1705.03" departLane="best" departSpeed="max" from="49302760" to="633036598#3"/>
    <trip id="veh280" type="veh_passenger" depart="1729.74" departLane="best" departSpeed="max" from="440337930#0" to="49302750#6"/>
    <trip id="veh282" type="veh_passenger" depart="1742.09" departLane="best" departSpeed="max" from="433611503" to="1243735272#2"/>
    <trip id="veh286" type="veh_passenger" depart="1766.80" departLane="best" departSpeed="max" from="49302760" to="436931475#2"/>
    <trip id="veh288" type="veh_passenger" depart="1779.16" departLane="best" departSpeed="max" from="234416385#0" to="436860976#4"/>
    <trip id="veh289" type="veh_passenger" depart="1785.34" departLane="best" from="439138548#0" to="506555356"/>
    <trip id="veh293" type="veh_passenger" depart="1810.05" departLane="best" departSpeed="max" from="1278955261#0" to="-443027807#2"/>
    <trip id="veh294" type="veh_passenger" depart="1816.23" departLane="best" departSpeed="max" from="442913599#0" to="442913601#1"/>
    <trip id="veh295" type="veh_passenger" depart="1822.40" departLane="best" departSpeed="max" from="874174967#0" to="401016556#3"/>
    <trip id="veh299" type="veh_passenger" depart="1847.11" departLane="best" departSpeed="max" from="874174967#0" to="-921584298"/>
    <trip id="veh300" type="veh_passenger" depart="1853.29" departLane="best" departSpeed="max" from="440337930#0" to="1243735272#2"/>
    <trip id="veh303" type="veh_passenger" depart="1871.82" departLane="best" from="704987366#0" to="-49302772#0"/>
    <trip id="veh305" type="veh_passenger" depart="1884.18" departLane="best" departSpeed="max" from="184495320#0" to="184279436"/>
    <trip id="veh307" type="veh_passenger" depart="1896.53" departLane="best" from="184279433#2" to="441954989"/>
    <trip id="veh310" type="veh_passenger" depart="1915.07" departLane="best" departSpeed="max" from="24332864#0" to="1243735272#2"/>
    <trip id="veh314" type="veh_passenger" depart="1939.78" departLane="best" departSpeed="max" from="401016556#0" to="276301093#0"/>
    <trip id="veh316" type="veh_passenger" depart="1952.13" departLane="best" from="443380448#0" to="436931475#2"/>
    <trip id="veh317" type="veh_passenger" depart="1958.31" departLane="best" from="443380448#2" to="-49540948#0"/>
    <trip id="veh319" type="veh_passenger" depart="1970.67" departLane="best" from="-443380448#5" to="914799109#0"/>
    <trip id="veh321" type="veh_passenger" depart="1983.02" departLane="best" from="401016556#1" to="-281333095#1"/>
    <trip id="veh325" type="veh_passenger" depart="2007.73" departLane="best" departSpeed="max" from="1278955261#0" to="49302772#4"/>
    <trip id="veh326" type="veh_passenger" depart="2013.91" departLane="best" from="913677254" to="1009738285#2"/>
    <trip id="veh327" type="veh_passenger" depart="2020.09" departLane="best" departSpeed="max" from="401016556#0" to="243916021#1"/>
    <trip id="veh331" type="veh_passenger" depart="2044.80" departLane="best" departSpeed="max" from="433611503" to="-921584298"/>
    <trip id="veh332" type="veh_passenger" depart="2050.98" departLane="best" departSpeed="max" from="401016556#0" to="-184495322#1"/>
    <trip id="veh334" type="veh_passenger" depart="2063.33" departLane="best" from="49540941#0" to="442913601#0"/>
    <trip id="veh335" type="veh_passenger" depart="2069.51" departLane="best" departSpeed="max" from="433611503" to="-921584298"/>
    <trip id="veh337" type="veh_passenger" depart="2081.86" departLane="best" from="443027807#3" to="442913602"/>
    <trip id="veh340" type="veh_passenger" depart="2100.40" departLane="best" from="913677254" to="436860976#5"/>
    <trip id="veh344" type="veh_passenger" depart="2125.11" departLane="best" departSpeed="max" from="443025668" to="24411340"/>
    <trip id="veh347" type="veh_passenger" depart="2143.64" departLane="best" departSpeed="max" from="184495320#0" to="440337930#3"/>
    <trip id="veh349" type="veh_passenger" depart="2156.00" departLane="best" departSpeed="max" from="443025668" to="443380448#2"/>
    <trip id="veh354" type="veh_passenger" depart="2186.88" departLane="best" from="443027807#1" to="436931475#2"/>
    <trip id="veh359" type="veh_passenger" depart="2217.77" departLane="best" from="-49302750#6" to="436860976#0"/>
    <trip id="veh361" type="veh_passenger" depart="2230.13" departLane="best" departSpeed="max" from="49540967#0" to="436931475#1"/>
    <trip id="veh363" type="veh_passenger" depart="2242.48" departLane="best" from="-49302750#5" to="281333093#1"/>
    <trip id="veh365" type="veh_passenger" depart="2254.84" departLane="best" from="590528031#1" to="439138548#2"/>
    <trip id="veh366" type="veh_passenger" depart="2261.01" departLane="best" departSpeed="max" from="184495320#0" to="436860978#0"/>
    <trip id="veh370" type="veh_passenger" depart="2285.73" departLane="best" departSpeed="max" from="433611503" to="436860976#7"/>
    <trip id="veh372" type="veh_passenger" depart="2298.08" departLane="best" from="913677165#0" to="439138548#0"/>
    <trip id="veh374" type="veh_passenger" depart="2310.44" departLane="best" departSpeed="max" from="442913599#0" to="-443027807#3"/>
    <trip id="veh378" type="veh_passenger" depart="2335.15" departLane="best" from="436707524#0" to="218314805#1"/>
    <trip id="veh381" type="veh_passenger" depart="2353.68" departLane="best" from="436860976#4" to="506555356"/>
    <trip id="veh382" type="veh_passenger" depart="2359.86" departLane="best" from="439138548#0" to="1243735272#2"/>
    <trip id="veh386" type="veh_passenger" depart="2384.57" departLane="best" from="-49302772#3" to="443380441#3"/>
    <trip id="veh391" type="veh_passenger" depart="2415.46" departLane="best" from="49302767#0" to="443380441#0"/>
    <trip id="veh395" type="veh_passenger" depart="2440.17" departLane="best" departSpeed="max" from="443025668" to="914799109#1"/>
    <trip id="veh396" type="veh_passenger" depart="2446.34" departLane="best" departSpeed="max" from="874174967#0" to="49302750#8"/>
    <trip id="veh397" type="veh_passenger" depart="2452.52" departLane="best" departSpeed="max" from="24332864#0" to="439138548#2"/>
    <trip id="veh398" type="veh_passenger" depart="2458.70" departLane="best" departSpeed="max" from="440337930#0" to="436860978#0"/>
    <trip id="veh404" type="veh_passenger" depart="2495.77" departLane="best" from="-49302750#3" to="506555354#1"/>
    <trip id="veh405" type="veh_passenger" depart="2501.94" departLane="best" departSpeed="max" from="132975482#0" to="282620839"/>
    <trip id="veh408" type="veh_passenger" depart="2520.48" departLane="best" departSpeed="max" from="874174967#0" to="276305701"/>
    <trip id="veh411" type="veh_passenger" depart="2539.01" departLane="best" departSpeed="max" from="874174967#0" to="-184495322#0"/>
    <trip id="veh412" type="veh_passenger" depart="2545.19" departLane="best" departSpeed="max" from="184495322#0" to="281333090"/>
    <trip id="veh416" type="veh_passenger" depart="2569.90" departLane="best" from="184495320#1" to="24411335#3"/>
    <trip id="veh417" type="veh_passenger" depart="2576.07" departLane="best" from="49540941#0" to="-443027807#1"/>
    <trip id="veh420" type="veh_passenger" depart="2594.61" departLane="best" from="434237030#1" to="-184279433#2"/>
    <trip id="veh426" type="veh_passenger" depart="2631.67" departLane="best" departSpeed="max" from="-49302750#8" to="506555356"/>
    <trip id="veh430" type="veh_passenger" depart="2656.38" departLane="best" departSpeed="max" from="440337930#0" to="-184279433#4"/>
    <trip id="veh431" type="veh_passenger" depart="2662.56" departLane="best" from="-184279436" to="49302750#4"/>
    <trip id="veh432" type="veh_passenger" depart="2668.74" departLane="best" from="1009738285#1" to="132975486"/>
    <trip id="veh434" type="veh_passenger" depart="2681.09" departLane="best" from="443027807#1" to="-436707524#0"/>
    <trip id="veh442" type="veh_passenger" depart="2730.52" departLane="best" from="281333095#1" to="436860978#0"/>
    <trip id="veh443" type="veh_passenger" depart="2736.69" departLane="best" from="-281333093#0" to="1243735272#2"/>
    <trip id="veh444" type="veh_passenger" depart="2742.87" departLane="best" from="132975486" to="921584296#2"/>
    <trip id="veh445" type="veh_passenger" depart="2749.05" departLane="best" departSpeed="max" from="401016556#0" to="281333093#1"/>
    <trip id="veh447" type="veh_passenger" depart="2761.40" departLane="best" from="442934133#0" to="49540948#3"/>
    <trip id="veh450" type="veh_passenger" depart="2779.94" departLane="best" departSpeed="max" from="184495320#0" to="281333093#1"/>
    <trip id="veh451" type="veh_passenger" depart="2786.11" departLane="best" from="218316505" to="281333095#3"/>
    <trip id="veh452" type="veh_passenger" depart="2792.29" departLane="best" departSpeed="max" from="234416385#0" to="439138548#2"/>
    <trip id="veh453" type="veh_passenger" depart="2798.47" departLane="best" departSpeed="max" from="184495322#0" to="-49302750#4"/>
    <trip id="veh456" type="veh_passenger" depart="2817.00" departLane="best" from="-442913602" to="442934133#2"/>
    <trip id="veh458" type="veh_passenger" depart="2829.36" departLane="best" departSpeed="max" from="433611503" to="436860976#7"/>
    <trip id="veh460" type="veh_passenger" depart="2841.71" departLane="best" from="-443380441#2" to="49540967#2"/>
    <trip id="veh465" type="veh_passenger" depart="2872.60" departLane="best" from="-443380441#3" to="49302772#4"/>
    <trip id="veh467" type="veh_passenger" depart="2884.96" departLane="best" departSpeed="max" from="49540948#0" to="914799109#0"/>
    <trip id="veh468" type="veh_passenger" depart="2891.13" departLane="best" from="49302772#1" to="436931475#0"/>
    <trip id="veh470" type="veh_passenger" depart="2903.49" departLane="best" from="760776542#0" to="49302767#1"/>
    <trip id="veh471" type="veh_passenger" depart="2909.67" departLane="best" departSpeed="max" from="1278955261#0" to="-49302772#0"/>
    <trip id="veh474" type="veh_passenger" depart="2928.20" departLane="best" departSpeed="max" from="218314805#0" to="443380448#3"/>
    <trip id="veh475" type="veh_passenger" depart="2934.38" departLane="best" from="436860976#6" to="-184495322#0"/>
    <trip id="veh476" type="veh_passenger" depart="2940.55" departLane="best" from="443027807#3" to="-49540948#1"/>
    <trip id="veh477" type="veh_passenger" depart="2946.73" departLane="best" departSpeed="max" from="234416385#0" to="184495320#2"/>
    <trip id="veh479" type="veh_passenger" depart="2959.09" departLane="best" from="49302750#3" to="436860976#7"/>
    <trip id="veh482" type="veh_passenger" depart="2977.62" departLane="best" departSpeed="max" from="440337930#0" to="1243735272#2"/>
    <trip id="veh483" type="veh_passenger" depart="2983.80" departLane="best" departSpeed="max" from="440337930#0" to="282620839"/>
    <trip id="veh485" type="veh_passenger" depart="2996.15" departLane="best" from="443380444" to="-443027807#0"/>
    <trip id="veh486" type="veh_passenger" depart="3002.33" departLane="best" from="234416385#1" to="1243735272#2"/>
    <trip id="veh487" type="veh_passenger" depart="3008.51" departLane="best" departSpeed="max" from="440337930#0" to="282620839"/>
    <trip id="veh490" type="veh_passenger" depart="3027.04" departLane="best" from="-184279433#0" to="1243735272#2"/>
    <trip id="veh497" type="veh_passenger" depart="3070.29" departLane="best" from="704987366#1" to="49540948#3"/>
    <trip id="veh498" type="veh_passenger" depart="3076.46" departLane="best" departSpeed="max" from="433611503" to="436860976#7"/>
    <trip id="veh504" type="veh_passenger" depart="3113.53" departLane="best" departSpeed="max" from="433611503" to="434237040#2"/>
    <trip id="veh506" type="veh_passenger" depart="3125.88" departLane="best" departSpeed="max" from="184495320#0" to="184279436"/>
    <trip id="veh509" type="veh_passenger" depart="3144.42" departLane="best" departSpeed="max" from="443025668" to="49302767#1"/>
    <trip id="veh513" type="veh_passenger" depart="3169.13" departLane="best" from="439431805#1" to="-49302772#0"/>
    <trip id="veh514" type="veh_passenger" depart="3175.31" departLane="best" from="443380443" to="443380448#2"/>
    <trip id="veh515" type="veh_passenger" depart="3181.48" departLane="best" departSpeed="max" from="24332864#0" to="590528032#1"/>
    <trip id="veh518" type="veh_passenger" depart="3200.02" departLane="best" departSpeed="max" from="132975482#0" to="1243735272#2"/>
    <trip id="veh519" type="veh_passenger" depart="3206.19" departLane="best" from="-132975482#4" to="281333093#0"/>
    <trip id="veh522" type="veh_passenger" depart="3224.73" departLane="best" departSpeed="max" from="49540967#0" to="436931475#0"/>
    <trip id="veh523" type="veh_passenger" depart="3230.90" departLane="best" from="506555355#0" to="281333091"/>
    <trip id="veh524" type="veh_passenger" depart="3237.08" departLane="best" departSpeed="max" from="49302772#0" to="436931475#2"/>
    <trip id="veh525" type="veh_passenger" depart="3243.26" departLane="best" departSpeed="max" from="132975484#0" to="282620839"/>
    <trip id="veh533" type="veh_passenger" depart="3292.68" departLane="best" departSpeed="max" from="1278955261#0" to="24411340"/>
    <trip id="veh534" type="veh_passenger" depart="3298.86" departLane="best" departSpeed="max" from="184495320#0" to="436860978#0"/>
    <trip id="veh535" type="veh_passenger" depart="3305.04" departLane="best" departSpeed="max" from="49302760" to="436931475#2"/>
    <trip id="veh536" type="veh_passenger" depart="3311.21" departLane="best" departSpeed="max" from="440337930#0" to="1243735272#2"/>
    <trip id="veh538" type="veh_passenger" depart="3323.57" departLane="best" from="184279433#4" to="436860978#0"/>
    <trip id="veh544" type="veh_passenger" depart="3360.63" departLane="best" departSpeed="max" from="49540944" to="442934133#2"/>
    <trip id="veh545" type="veh_passenger" depart="3366.81" departLane="best" from="704987366#0" to="-436707524#1"/>