<?xml version="1.0" encoding="UTF-8"?>

<!-- generated on 2024-07-17 18:20:23.323121 by osmWebWizard.py v1_19_0+0000-baa66a0f364
<configuration>
    <net-file value="C:\Users\Pichau\Desktop\Faculdade\UFC\BOLSA\2024Project\2024-07-17-18-20-03\osm.net.xml.gz"/>
    <output-trip-file value="C:\Users\Pichau\Desktop\Faculdade\UFC\BOLSA\2024Project\2024-07-17-18-20-03\osm.truck.trips.xml"/>
    <route-file value="C:\Users\Pichau\Desktop\Faculdade\UFC\BOLSA\2024Project\2024-07-17-18-20-03\osm.truck.rou.xml"/>
    <prefix value="truck"/>
    <trip-attributes value="departLane=&quot;best&quot;"/>
    <fringe-start-attributes value="departSpeed=&quot;max&quot;"/>
    <vehicle-class value="truck"/>
    <fringe-factor value="5"/>
    <vclass value="truck"/>
    <via-edge-types value="highway.motorway,highway.motorway_link,highway.trunk_link,highway.primary_link,highway.secondary_link,highway.tertiary_link"/>
    <min-distance value="600.0"/>
    <min-distance.fringe value="10.0"/>
    <remove-loops value="True"/>
    <validate value="True"/>
    <insertion-density value="8.0"/>
</configuration>
-->

<!-- generated on 2024-07-17 18:20:23 by Eclipse SUMO duarouter Version 1.19.0
<configuration xmlns:xsi="http://www.w3.org/2001/XMLSchema-instance" xsi:noNamespaceSchemaLocation="http://sumo.dlr.de/xsd/duarouterConfiguration.xsd">

    <input>
        <net-file value="C:\Users\Pichau\Desktop\Faculdade\UFC\BOLSA\2024Project\2024-07-17-18-20-03\osm.net.xml.gz"/>
        <route-files value="C:\Users\Pichau\Desktop\Faculdade\UFC\BOLSA\2024Project\2024-07-17-18-20-03\osm.truck.trips.xml"/>
    </input>

    <output>
        <output-file value="C:\Users\Pichau\Desktop\Faculdade\UFC\BOLSA\2024Project\2024-07-17-18-20-03\osm.truck.trips.xml.tmp"/>
        <alternatives-output value="NUL"/>
        <write-trips value="true"/>
    </output>

    <processing>
        <remove-loops value="true"/>
    </processing>

    <time>
        <begin value="0.0"/>
        <end value="3600.0"/>
    </time>

    <report>
        <no-warnings value="true"/>
        <ignore-errors value="true"/>
        <no-step-log value="true"/>
    </report>

</configuration>
-->

<routes xmlns:xsi="http://www.w3.org/2001/XMLSchema-instance" xsi:noNamespaceSchemaLocation="http://sumo.dlr.de/xsd/routes_file.xsd">
    <vType id="truck_truck" vClass="truck"/>
    <trip id="truck2" type="truck_truck" depart="23.17" departLane="best" departSpeed="max" from="443025668" to="439431805#0"/>
    <trip id="truck5" type="truck_truck" depart="57.92" departLane="best" departSpeed="max" from="1278955261#0" to="-443027807#0"/>
    <trip id="truck11" type="truck_truck" depart="127.41" departLane="best" departSpeed="max" from="-49302767#1" to="-49540948#0"/>
    <trip id="truck20" type="truck_truck" depart="231.66" departLane="best" departSpeed="max" from="401016556#0" to="506555356"/>
    <trip id="truck22" type="truck_truck" depart="254.83" departLane="best" departSpeed="max" from="218314805#0" to="760776542#0"/>
    <trip id="truck26" type="truck_truck" depart="301.16" departLane="best" departSpeed="max" from="49540948#0" to="49302767#1"/>
    <trip id="truck30" type="truck_truck" depart="347.49" departLane="best" departSpeed="max" from="234416385#0" to="282620839"/>
    <trip id="truck34" type="truck_truck" depart="393.82" departLane="best" departSpeed="max" from="1278955261#0" to="-633036599"/>
    <trip id="truck39" type="truck_truck" depart="451.74" departLane="best" departSpeed="max" from="234416385#0" to="49302750#2"/>
    <trip id="truck50" type="truck_truck" depart="579.15" departLane="best" departSpeed="max" from="874174967#0" to="434237040#2"/>
    <trip id="truck61" type="truck_truck" depart="706.57" departLane="best" departSpeed="max" from="49540948#0" to="49540967#1"/>
    <trip id="truck80" type="truck_truck" depart="926.65" departLane="best" from="132975484#2" to="434237040#1"/>
    <trip id="truck89" type="truck_truck" depart="1030.89" departLane="best" departSpeed="max" from="234416385#0" to="506555356"/>
    <trip id="truck91" type="truck_truck" depart="1054.06" departLane="best" departSpeed="max" from="184495320#0" to="436860978#0"/>
    <trip id="truck92" type="truck_truck" depart="1065.64" departLane="best" departSpeed="max" from="443027807#0" to="443380448#6"/>
    <trip id="truck97" type="truck_truck" depart="1123.56" departLane="best" departSpeed="max" from="49540967#0" to="443380443"/>
    <trip id="truck99" type="truck_truck" depart="1146.72" departLane="best" departSpeed="max" from="-49302772#4" to="436931475#0"/>
    <trip id="truck105" type="truck_truck" depart="1216.22" departLane="best" departSpeed="max" from="184495320#0" to="282620839"/>
    <trip id="truck107" type="truck_truck" depart="1239.39" departLane="best" departSpeed="max" from="132975484#0" to="-132975482#0"/>
    <trip id="truck113" type="truck_truck" depart="1308.89" departLane="best" departSpeed="max" from="234416385#0" to="281333095#2"/>
    <trip id="truck124" type="truck_truck" depart="1436.30" departLane="best" departSpeed="max" from="440337930#0" to="436860978#0"/>
    <trip id="truck129" type="truck_truck" depart="1494.22" departLane="best" departSpeed="max" from="24332864#0" to="1028711011#2"/>
    <trip id="truck131" type="truck_truck" depart="1517.38" departLane="best" departSpeed="max" from="442913599#0" to="243228616#1"/>
    <trip id="truck132" type="truck_truck" depart="1528.97" departLane="best" departSpeed="max" from="443025668" to="912866257"/>
    <trip id="truck135" type="truck_truck" depart="1563.71" departLane="best" departSpeed="max" from="-49540948#3" to="49302772#4"/>
    <trip id="truck136" type="truck_truck" depart="1575.30" departLane="best" departSpeed="max" from="234416385#0" to="436860976#7"/>
    <trip id="truck142" type="truck_truck" depart="1644.80" departLane="best" departSpeed="max" from="443027807#0" to="1009738286"/>
    <trip id="truck143" type="truck_truck" depart="1656.38" departLane="best" from="704987366#0" to="-49540944"/>
    <trip id="truck146" type="truck_truck" depart="1691.13" departLane="best" departSpeed="max" from="874174967#0" to="281333093#1"/>
    <trip id="truck150" type="truck_truck" depart="1737.46" departLane="best" departSpeed="max" from="874174967#0" to="401016556#2"/>
    <trip id="truck152" type="truck_truck" depart="1760.63" departLane="best" departSpeed="max" from="234416385#0" to="-24332864#1"/>
    <trip id="truck156" type="truck_truck" depart="1806.96" departLane="best" from="184676323#1" to="49540941#1"/>
    <trip id="truck158" type="truck_truck" depart="1830.12" departLane="best" departSpeed="max" from="433611503" to="436860976#6"/>
    <trip id="truck164" type="truck_truck" depart="1899.62" departLane="best" departSpeed="max" from="184495322#0" to="282620839"/>
    <trip id="truck172" type="truck_truck" depart="1992.29" departLane="best" from="-49302750#7" to="282620839"/>
    <trip id="truck173" type="truck_truck" depart="2003.87" departLane="best" departSpeed="max" from="218314805#0" to="442913601#1"/>
    <trip id="truck191" type="truck_truck" depart="2212.37" departLane="best" departSpeed="max" from="443027807#0" to="442913602"/>
    <trip id="truck198" type="truck_truck" depart="2293.45" departLane="best" departSpeed="max" from="443027807#0" to="243228616#0"/>
    <trip id="truck200" type="truck_truck" depart="2316.61" departLane="best" from="24332864#1" to="49302750#7"/>
    <trip id="truck205" type="truck_truck" depart="2374.53" departLane="best" departSpeed="max" from="1278955261#0" to="-633036599"/>
    <trip id="truck208" type="truck_truck" depart="2409.28" departLane="best" departSpeed="max" from="-590528032#1" to="49302750#8"/>
    <trip id="truck212" type="truck_truck" depart="2455.61" departLane="best" from="-443380448#5" to="-436707524#0"/>
    <trip id="truck217" type="truck_truck" depart="2513.53" departLane="best" departSpeed="max" from="874174967#0" to="49302750#8"/>
    <trip id="truck232" type="truck_truck" depart="2687.27" departLane="best" departSpeed="max" from="-49302772#4" to="-443380441#0"/>
    <trip id="truck236" type="truck_truck" depart="2733.60" departLane="best" departSpeed="max" from="443027807#0" to="281310233#1"/>
    <trip id="truck240" type="truck_truck" depart="2779.94" departLane="best" from="234416385#1" to="184495320#3"/>
    <trip id="truck241" type="truck_truck" depart="2791.52" departLane="best" departSpeed="max" from="440337930#0" to="281333087"/>
    <trip id="truck245" type="truck_truck" depart="2837.85" departLane="best" departSpeed="max" from="218314805#0" to="-49302760"/>
    <trip id="truck249" type="truck_truck" depart="2884.18" departLane="best" departSpeed="max" from="443027807#0" to="49540948#3"/>
    <trip id="truck272" type="truck_truck" depart="3150.59" departLane="best" from="234416385#5" to="-132975482#3"/>
    <trip id="truck273" type="truck_truck" depart="3162.18" departLane="best" from="1009738285#2" to="49302750#8"/>
    <trip id="truck275" type="truck_truck" depart="3185.34" departLane="best" departSpeed="max" from="401016556#0" to="281333093#1"/>
    <trip id="truck278" type="truck_truck" depart="3220.09" departLane="best" departSpeed="max" from="443025668" to="49302766#2"/>
    <trip id="truck289" type="truck_truck" depart="3347.51" departLane="best" departSpeed="max" from="1278955261#0" to="442934133#2"/>
    <trip id="truck290" type="truck_truck" depart="3359.09" departLane="best" departSpeed="max" from="-49302772#4" to="243228724#1"/>
    <trip id="truck292" type="truck_truck" depart="3382.26" departLane="best" from="-443380448#5" to="436931475#2"/>
    <trip id="truck300" type="truck_truck" depart="3474.92" departLane="best" departSpeed="max" from="-49302767#1" to="-436707525"/>
    <trip id="truck303" type="truck_truck" depart="3509.67" departLane="best" from="234416385#2" to="1028711011#2"/>
    <trip id="truck307" type="truck_truck" depart="3556.00" departLane="best" departSpeed="max" from="218314805#0" to="-49540948#0"/>
</routes>
