<?xml version="1.0" encoding="UTF-8"?>

<!-- generated on 2024-07-15 17:36:10.043472 by osmWebWizard.py v1_19_0+0000-baa66a0f364
<configuration>
    <net-file value="C:\Users\Pichau\Desktop\Faculdade\UFC\BOLSA\2024Project\2024-07-15-17-35-13\osm.net.xml.gz"/>
    <output-trip-file value="C:\Users\Pichau\Desktop\Faculdade\UFC\BOLSA\2024Project\2024-07-15-17-35-13\osm.bus.trips.xml"/>
    <route-file value="C:\Users\Pichau\Desktop\Faculdade\UFC\BOLSA\2024Project\2024-07-15-17-35-13\osm.bus.rou.xml"/>
    <prefix value="bus"/>
    <trip-attributes value="departLane=&quot;best&quot;"/>
    <fringe-start-attributes value="departSpeed=&quot;max&quot;"/>
    <vehicle-class value="bus"/>
    <fringe-factor value="5"/>
    <vclass value="bus"/>
    <via-edge-types value="highway.motorway,highway.motorway_link,highway.trunk_link,highway.primary_link,highway.secondary_link,highway.tertiary_link"/>
    <min-distance value="600.0"/>
    <min-distance.fringe value="10.0"/>
    <remove-loops value="True"/>
    <validate value="True"/>
    <end value="1000.0"/>
    <insertion-density value="4.0"/>
</configuration>
-->

<!-- generated on 2024-07-15 17:36:09 by Eclipse SUMO duarouter Version 1.19.0
<configuration xmlns:xsi="http://www.w3.org/2001/XMLSchema-instance" xsi:noNamespaceSchemaLocation="http://sumo.dlr.de/xsd/duarouterConfiguration.xsd">

    <input>
        <net-file value="C:\Users\Pichau\Desktop\Faculdade\UFC\BOLSA\2024Project\2024-07-15-17-35-13\osm.net.xml.gz"/>
        <route-files value="C:\Users\Pichau\Desktop\Faculdade\UFC\BOLSA\2024Project\2024-07-15-17-35-13\osm.bus.trips.xml"/>
    </input>

    <output>
        <output-file value="C:\Users\Pichau\Desktop\Faculdade\UFC\BOLSA\2024Project\2024-07-15-17-35-13\osm.bus.trips.xml.tmp"/>
        <alternatives-output value="NUL"/>
        <write-trips value="true"/>
    </output>

    <processing>
        <remove-loops value="true"/>
    </processing>

    <time>
        <begin value="0.0"/>
        <end value="1000.0"/>
    </time>

    <report>
        <no-warnings value="true"/>
        <ignore-errors value="true"/>
        <no-step-log value="true"/>
    </report>

</configuration>
-->

<routes xmlns:xsi="http://www.w3.org/2001/XMLSchema-instance" xsi:noNamespaceSchemaLocation="http://sumo.dlr.de/xsd/routes_file.xsd">
    <vType id="bus_bus" vClass="bus"/>
    <trip id="bus0" type="bus_bus" depart="0.00" departLane="best" from="436421206#3" to="-234414041#0"/>
    <trip id="bus1" type="bus_bus" depart="7.77" departLane="best" from="663577417#5" to="-49540948#0"/>
    <trip id="bus2" type="bus_bus" depart="15.54" departLane="best" departSpeed="max" from="442934132#0" to="436421210#1"/>
    <trip id="bus3" type="bus_bus" depart="23.30" departLane="best" from="663577417#5" to="-276301089"/>
    <trip id="bus4" type="bus_bus" depart="31.07" departLane="best" from="24395492#8" to="-234414041#6"/>
    <trip id="bus5" type="bus_bus" depart="38.84" departLane="best" departSpeed="max" from="-49302767#2" to="24439925#1"/>
    <trip id="bus6" type="bus_bus" depart="46.61" departLane="best" from="234414043#1" to="-49302772#4"/>
    <trip id="bus7" type="bus_bus" depart="54.38" departLane="best" from="436421210#5" to="258491138#2"/>
    <trip id="bus8" type="bus_bus" depart="62.14" departLane="best" departSpeed="max" from="-49302767#2" to="281333090"/>
    <trip id="bus9" type="bus_bus" depart="69.91" departLane="best" departSpeed="max" from="49302760" to="132975476"/>
    <trip id="bus10" type="bus_bus" depart="77.68" departLane="best" from="49302758#7" to="436564173#1"/>
    <trip id="bus11" type="bus_bus" depart="85.45" departLane="best" from="912866257" to="234415577#9"/>
    <trip id="bus12" type="bus_bus" depart="93.22" departLane="best" from="-276330566#1" to="-281331620#1"/>
    <trip id="bus13" type="bus_bus" depart="100.99" departLane="best" departSpeed="max" from="49540948#0" to="281334459#1"/>
    <trip id="bus14" type="bus_bus" depart="108.75" departLane="best" departSpeed="max" from="49302760" to="436860978#1"/>
    <trip id="bus15" type="bus_bus" depart="116.52" departLane="best" from="24441602#1" to="913677167#1"/>
    <trip id="bus16" type="bus_bus" depart="124.29" departLane="best" from="49302777#1" to="-281346547"/>
    <trip id="bus17" type="bus_bus" depart="132.06" departLane="best" departSpeed="max" from="437322875#0" to="234416385#7"/>
    <trip id="bus18" type="bus_bus" depart="139.83" departLane="best" from="49302775#2" to="24395520#3"/>
    <trip id="bus19" type="bus_bus" depart="147.59" departLane="best" from="-24439931#0" to="-642309794#0"/>
    <trip id="bus20" type="bus_bus" depart="155.36" departLane="best" departSpeed="max" from="-281331611" to="1028711011#4"/>
    <trip id="bus21" type="bus_bus" depart="163.13" departLane="best" from="436412309#1" to="24395466#1"/>
    <trip id="bus22" type="bus_bus" depart="170.90" departLane="best" from="436421210#2" to="-281346542#1"/>
    <trip id="bus23" type="bus_bus" depart="178.67" departLane="best" from="956162341#0" to="40136352#0"/>
    <trip id="bus24" type="bus_bus" depart="186.43" departLane="best" from="49540860#3" to="443194826#2"/>
    <trip id="bus25" type="bus_bus" depart="194.20" departLane="best" from="49302775#4" to="-234414043#0"/>
    <trip id="bus26" type="bus_bus" depart="201.97" departLane="best" from="1278955261#4" to="1007799493#1"/>
    <trip id="bus27" type="bus_bus" depart="209.74" departLane="best" from="-49302758#1" to="874199605#0"/>
    <trip id="bus28" type="bus_bus" depart="217.51" departLane="best" from="649275688#4" to="184279433#4"/>
    <trip id="bus29" type="bus_bus" depart="225.27" departLane="best" from="436564138#2" to="24395492#17"/>
    <trip id="bus30" type="bus_bus" depart="233.04" departLane="best" from="258491138#7" to="-976794425#0"/>
    <trip id="bus31" type="bus_bus" depart="240.81" departLane="best" from="281333088" to="663577417#1"/>
    <trip id="bus32" type="bus_bus" depart="248.58" departLane="best" from="24395471#1" to="-49540860#1"/>
    <trip id="bus33" type="bus_bus" depart="256.35" departLane="best" departSpeed="max" from="976794425#0" to="24439926#3"/>
    <trip id="bus34" type="bus_bus" depart="264.11" departLane="best" from="24441638#0" to="24332864#1"/>
    <trip id="bus35" type="bus_bus" depart="271.88" departLane="best" from="49302750#3" to="24395513#19"/>
    <trip id="bus36" type="bus_bus" depart="279.65" departLane="best" departSpeed="max" from="976794425#0" to="24441625#1"/>
    <trip id="bus37" type="bus_bus" depart="287.42" departLane="best" from="-132975482#0" to="436800847#3"/>
    <trip id="bus38" type="bus_bus" depart="295.19" departLane="best" from="436707524#2" to="24441637#2"/>
    <trip id="bus39" type="bus_bus" depart="302.96" departLane="best" from="-663577416#1" to="40136352#1"/>
    <trip id="bus40" type="bus_bus" depart="310.72" departLane="best" departSpeed="max" from="-281331617" to="24395516#1"/>
    <trip id="bus41" type="bus_bus" depart="318.49" departLane="best" from="-24395517#4" to="874199605#7"/>
    <trip id="bus42" type="bus_bus" depart="326.26" departLane="best" from="649275688#3" to="-976794425#0"/>
    <trip id="bus43" type="bus_bus" depart="334.03" departLane="best" from="24411335#4" to="-49302758#0"/>
    <trip id="bus44" type="bus_bus" depart="341.80" departLane="best" departSpeed="max" from="739013055#0" to="633036595"/>
    <trip id="bus45" type="bus_bus" depart="349.56" departLane="best" departSpeed="max" from="1046231850#0" to="40136349#2"/>
    <trip id="bus46" type="bus_bus" depart="357.33" departLane="best" from="401016556#4" to="-443380441#0"/>
    <trip id="bus47" type="bus_bus" depart="365.10" departLane="best" from="443380444" to="24441637#4"/>
    <trip id="bus48" type="bus_bus" depart="372.87" departLane="best" from="-443772306#2" to="24441634#1"/>
    <trip id="bus49" type="bus_bus" depart="380.64" departLane="best" from="-1007799493#0" to="218314805#1"/>
    <trip id="bus50" type="bus_bus" depart="388.40" departLane="best" from="184495322#0" to="85450452#0"/>
    <trip id="bus51" type="bus_bus" depart="396.17" departLane="best" from="-663502819#1" to="49302776#0"/>
    <trip id="bus52" type="bus_bus" depart="403.94" departLane="best" from="1184830988#1" to="-243916021#0"/>
    <trip id="bus53" type="bus_bus" depart="411.71" departLane="best" from="663502819#0" to="874199605#12"/>
    <trip id="bus54" type="bus_bus" depart="419.48" departLane="best" from="-24441637#2" to="24411340"/>
    <trip id="bus55" type="bus_bus" depart="427.24" departLane="best" departSpeed="max" from="-24395517#8" to="442066694#2"/>
    <trip id="bus56" type="bus_bus" depart="435.01" departLane="best" from="443380448#4" to="-440337930#2"/>
    <trip id="bus57" type="bus_bus" depart="442.78" departLane="best" from="-663577414" to="633036596#1"/>
    <trip id="bus60" type="bus_bus" depart="466.09" departLane="best" from="-443772306#5" to="184279433#0"/>
    <trip id="bus61" type="bus_bus" depart="473.85" departLane="best" from="956162341#7" to="40138395#0"/>
    <trip id="bus62" type="bus_bus" depart="481.62" departLane="best" departSpeed="max" from="-281333087" to="-49540948#0"/>
    <trip id="bus63" type="bus_bus" depart="489.39" departLane="best" from="-49302776#0" to="-49540860#2"/>
    <trip id="bus64" type="bus_bus" depart="497.16" departLane="best" departSpeed="max" from="-24395517#8" to="401016556#4"/>
    <trip id="bus65" type="bus_bus" depart="504.93" departLane="best" from="49302775#4" to="693895751#0"/>
    <trip id="bus66" type="bus_bus" depart="512.69" departLane="best" from="535396896#2" to="24395517#7"/>
    <trip id="bus67" type="bus_bus" depart="520.46" departLane="best" from="49540860#3" to="436421208#0"/>
    <trip id="bus68" type="bus_bus" depart="528.23" departLane="best" from="-49302758#6" to="-441954987#0"/>
    <trip id="bus69" type="bus_bus" depart="536.00" departLane="best" departSpeed="max" from="874174967#0" to="281331615#1"/>
    <trip id="bus70" type="bus_bus" depart="543.77" departLane="best" from="24395520#7" to="443380448#6"/>
    <trip id="bus71" type="bus_bus" depart="551.53" departLane="best" from="281310230" to="24395513#8"/>
    <trip id="bus72" type="bus_bus" depart="559.30" departLane="best" from="441954987#1" to="436421208#3"/>
    <trip id="bus74" type="bus_bus" depart="574.84" departLane="best" from="24395474#1" to="234416385#3"/>
    <trip id="bus75" type="bus_bus" depart="582.61" departLane="best" from="-443380448#1" to="24395518#4"/>
    <trip id="bus76" type="bus_bus" depart="590.37" departLane="best" from="24395492#8" to="1028711011#4"/>
    <trip id="bus77" type="bus_bus" depart="598.14" departLane="best" departSpeed="max" from="-590528032#1" to="-774510685#2"/>
    <trip id="bus78" type="bus_bus" depart="605.91" departLane="best" from="24395513#12" to="590528031#1"/>
    <trip id="bus79" type="bus_bus" depart="613.68" departLane="best" from="24441638#0" to="-243504225#0"/>
    <trip id="bus80" type="bus_bus" depart="621.45" departLane="best" from="-976794425#1" to="49302777#3"/>
    <trip id="bus82" type="bus_bus" depart="636.98" departLane="best" from="49540967#0" to="443772306#0"/>
    <trip id="bus84" type="bus_bus" depart="652.52" departLane="best" from="24395473#1" to="243916021#1"/>
    <trip id="bus85" type="bus_bus" depart="660.29" departLane="best" from="243504224#1" to="915222975#2"/>
    <trip id="bus86" type="bus_bus" depart="668.06" departLane="best" from="-663577414" to="-443380448#5"/>
    <trip id="bus87" type="bus_bus" depart="675.82" departLane="best" from="-24395517#6" to="24395513#2"/>
    <trip id="bus88" type="bus_bus" depart="683.59" departLane="best" from="912866257" to="956162341#3"/>
    <trip id="bus89" type="bus_bus" depart="691.36" departLane="best" from="258491138#11" to="436800847#0"/>
    <trip id="bus90" type="bus_bus" depart="699.13" departLane="best" departSpeed="max" from="-371222311" to="1258678908"/>
    <trip id="bus92" type="bus_bus" depart="714.66" departLane="best" from="24441634#1" to="439188862"/>
    <trip id="bus93" type="bus_bus" depart="722.43" departLane="best" from="-24395491#3" to="281333087"/>
    <trip id="bus94" type="bus_bus" depart="730.20" departLane="best" from="24439902#1" to="506555356#1"/>
    <trip id="bus95" type="bus_bus" depart="737.97" departLane="best" from="40138389" to="912830349#1"/>
    <trip id="bus96" type="bus_bus" depart="745.74" departLane="best" from="-24439931#0" to="49302758#6"/>
    <trip id="bus97" type="bus_bus" depart="753.50" departLane="best" from="-49302783" to="-437322875#0"/>
    <trip id="bus98" type="bus_bus" depart="761.27" departLane="best" from="281346542#1" to="282620842#0"/>
    <trip id="bus99" type="bus_bus" depart="769.04" departLane="best" from="24395492#3" to="281333087"/>
    <trip id="bus100" type="bus_bus" depart="776.81" departLane="best" from="24439927#2" to="874199602#0"/>
    <trip id="bus101" type="bus_bus" depart="784.58" departLane="best" from="-49540948#1" to="24395492#17"/>
    <trip id="bus102" type="bus_bus" depart="792.34" departLane="best" from="436564174#4" to="1278955261#2"/>
    <trip id="bus103" type="bus_bus" depart="800.11" departLane="best" from="436412311" to="440337930#2"/>
    <trip id="bus104" type="bus_bus" depart="807.88" departLane="best" departSpeed="max" from="976794425#0" to="956162341#3"/>
    <trip id="bus106" type="bus_bus" depart="823.42" departLane="best" from="-663577414" to="874199601#0"/>
    <trip id="bus107" type="bus_bus" depart="831.19" departLane="best" from="663577412#0" to="642309794#1"/>
    <trip id="bus109" type="bus_bus" depart="846.72" departLane="best" from="436564138#11" to="-132975482#1"/>
    <trip id="bus110" type="bus_bus" depart="854.49" departLane="best" departSpeed="max" from="49302772#0" to="1278955261#2"/>
    <trip id="bus111" type="bus_bus" depart="862.26" departLane="best" from="281333095#1" to="-436707524#0"/>
    <trip id="bus112" type="bus_bus" depart="870.03" departLane="best" departSpeed="max" from="-281331615#1" to="276301093#1"/>
    <trip id="bus113" type="bus_bus" depart="877.79" departLane="best" from="439138548#1" to="49302775#3"/>
    <trip id="bus114" type="bus_bus" depart="885.56" departLane="best" from="434237040#2" to="-976794425#0"/>
    <trip id="bus115" type="bus_bus" depart="893.33" departLane="best" from="24395521#5" to="693895751#0"/>
    <trip id="bus116" type="bus_bus" depart="901.10" departLane="best" departSpeed="max" from="49540948#0" to="281331615#0"/>
    <trip id="bus117" type="bus_bus" depart="908.87" departLane="best" from="24395496#0" to="1028711011#4"/>
    <trip id="bus118" type="bus_bus" depart="916.63" departLane="best" departSpeed="max" from="-1007799493#1" to="442934133#1"/>
    <trip id="bus119" type="bus_bus" depart="924.40" departLane="best" from="436421202#3" to="-976794425#0"/>
    <trip id="bus120" type="bus_bus" depart="932.17" departLane="best" from="442934133#0" to="276301089"/>
    <trip id="bus121" type="bus_bus" depart="939.94" departLane="best" from="24395496#6" to="-132975482#3"/>
    <trip id="bus122" type="bus_bus" depart="947.71" departLane="best" from="24439924#2" to="649275688#1"/>
    <trip id="bus123" type="bus_bus" depart="955.47" departLane="best" from="704987366#0" to="258491138#2"/>
    <trip id="bus125" type="bus_bus" depart="971.01" departLane="best" departSpeed="max" from="-281346545" to="-440337930#1"/>
    <trip id="bus126" type="bus_bus" depart="978.78" departLane="best" from="-49302750#8" to="590528031#0"/>
    <trip id="bus127" type="bus_bus" depart="986.55" departLane="best" from="671060625#3" to="-49302777#4"/>
    <trip id="bus128" type="bus_bus" depart="994.31" departLane="best" from="24395474#6" to="282620842#1"/>
</routes>
