<?xml version="1.0" encoding="UTF-8"?>

<!-- generated on 2024-07-15 17:36:11.169382 by osmWebWizard.py v1_19_0+0000-baa66a0f364
<configuration>
    <net-file value="C:\Users\Pichau\Desktop\Faculdade\UFC\BOLSA\2024Project\2024-07-15-17-35-13\osm.net.xml.gz"/>
    <output-trip-file value="C:\Users\Pichau\Desktop\Faculdade\UFC\BOLSA\2024Project\2024-07-15-17-35-13\osm.motorcycle.trips.xml"/>
    <route-file value="C:\Users\Pichau\Desktop\Faculdade\UFC\BOLSA\2024Project\2024-07-15-17-35-13\osm.motorcycle.rou.xml"/>
    <prefix value="motorcycle"/>
    <trip-attributes value="departLane=&quot;best&quot;"/>
    <fringe-start-attributes value="departSpeed=&quot;max&quot;"/>
    <vehicle-class value="motorcycle"/>
    <fringe-factor value="6"/>
    <vclass value="motorcycle"/>
    <via-edge-types value="highway.motorway,highway.motorway_link,highway.trunk_link,highway.primary_link,highway.secondary_link,highway.tertiary_link"/>
    <max-distance value="1200.0"/>
    <remove-loops value="True"/>
    <validate value="True"/>
    <end value="1000.0"/>
    <insertion-density value="10.0"/>
</configuration>
-->

<!-- generated on 2024-07-15 17:36:11 by Eclipse SUMO duarouter Version 1.19.0
<configuration xmlns:xsi="http://www.w3.org/2001/XMLSchema-instance" xsi:noNamespaceSchemaLocation="http://sumo.dlr.de/xsd/duarouterConfiguration.xsd">

    <input>
        <net-file value="C:\Users\Pichau\Desktop\Faculdade\UFC\BOLSA\2024Project\2024-07-15-17-35-13\osm.net.xml.gz"/>
        <route-files value="C:\Users\Pichau\Desktop\Faculdade\UFC\BOLSA\2024Project\2024-07-15-17-35-13\osm.motorcycle.trips.xml"/>
    </input>

    <output>
        <output-file value="C:\Users\Pichau\Desktop\Faculdade\UFC\BOLSA\2024Project\2024-07-15-17-35-13\osm.motorcycle.trips.xml.tmp"/>
        <alternatives-output value="NUL"/>
        <write-trips value="true"/>
    </output>

    <processing>
        <remove-loops value="true"/>
    </processing>

    <time>
        <begin value="0.0"/>
        <end value="1000.0"/>
    </time>

    <report>
        <no-warnings value="true"/>
        <ignore-errors value="true"/>
        <no-step-log value="true"/>
    </report>

</configuration>
-->

<routes xmlns:xsi="http://www.w3.org/2001/XMLSchema-instance" xsi:noNamespaceSchemaLocation="http://sumo.dlr.de/xsd/routes_file.xsd">
    <vType id="motorcycle_motorcycle" vClass="motorcycle"/>
    <trip id="motorcycle0" type="motorcycle_motorcycle" depart="0.00" departLane="best" from="663577417#5" to="535396897#1"/>
    <trip id="motorcycle1" type="motorcycle_motorcycle" depart="3.13" departLane="best" from="663577417#6" to="-24441638#0"/>
    <trip id="motorcycle2" type="motorcycle_motorcycle" depart="6.25" departLane="best" from="-234414041#6" to="-49302775#1"/>
    <trip id="motorcycle3" type="motorcycle_motorcycle" depart="9.38" departLane="best" from="436564138#11" to="258491138#8"/>
    <trip id="motorcycle4" type="motorcycle_motorcycle" depart="12.50" departLane="best" departSpeed="max" from="-49302767#2" to="281333090"/>
    <trip id="motorcycle5" type="motorcycle_motorcycle" depart="15.63" departLane="best" from="49302766#0" to="1163078068"/>
    <trip id="motorcycle7" type="motorcycle_motorcycle" depart="21.88" departLane="best" from="-276301089" to="-281331620#0"/>
    <trip id="motorcycle8" type="motorcycle_motorcycle" depart="25.00" departLane="best" departSpeed="max" from="49302760" to="436860978#0"/>
    <trip id="motorcycle9" type="motorcycle_motorcycle" depart="28.13" departLane="best" from="24441603#2" to="913677167#1"/>
    <trip id="motorcycle10" type="motorcycle_motorcycle" depart="31.25" departLane="best" from="-243504222#2" to="276330566#4"/>
    <trip id="motorcycle11" type="motorcycle_motorcycle" depart="34.38" departLane="best" from="583545352" to="281331619"/>
    <trip id="motorcycle12" type="motorcycle_motorcycle" depart="37.51" departLane="best" departSpeed="max" from="437374815#0" to="234416385#5"/>
    <trip id="motorcycle13" type="motorcycle_motorcycle" depart="40.63" departLane="best" from="49302775#2" to="1243735272#2"/>
    <trip id="motorcycle14" type="motorcycle_motorcycle" depart="43.76" departLane="best" from="-24439930#0" to="663502819#1"/>
    <trip id="motorcycle15" type="motorcycle_motorcycle" depart="46.88" departLane="best" from="-281310233#2" to="1062163234"/>
    <trip id="motorcycle16" type="motorcycle_motorcycle" depart="50.01" departLane="best" from="-663577416#0" to="874199604#2"/>
    <trip id="motorcycle17" type="motorcycle_motorcycle" depart="53.13" departLane="best" from="436564138#0" to="281346544"/>
    <trip id="motorcycle18" type="motorcycle_motorcycle" depart="56.26" departLane="best" from="-40136357#0" to="24395475#1"/>
    <trip id="motorcycle19" type="motorcycle_motorcycle" depart="59.38" departLane="best" from="956162341#0" to="40136352#0"/>
    <trip id="motorcycle20" type="motorcycle_motorcycle" depart="62.51" departLane="best" from="258491138#5" to="436564138#12"/>
    <trip id="motorcycle21" type="motorcycle_motorcycle" depart="65.63" departLane="best" from="49540860#3" to="-443027807#3"/>
    <trip id="motorcycle23" type="motorcycle_motorcycle" depart="71.89" departLane="best" from="649275688#4" to="184495320#1"/>
    <trip id="motorcycle24" type="motorcycle_motorcycle" depart="75.01" departLane="best" from="436564138#8" to="24395492#4"/>
    <trip id="motorcycle25" type="motorcycle_motorcycle" depart="78.14" departLane="best" from="741318238" to="24395520#6"/>
    <trip id="motorcycle26" type="motorcycle_motorcycle" depart="81.26" departLane="best" from="663577413" to="-663577417#5"/>
    <trip id="motorcycle27" type="motorcycle_motorcycle" depart="84.39" departLane="best" from="276301093#0" to="1007799493#1"/>
    <trip id="motorcycle28" type="motorcycle_motorcycle" depart="87.51" departLane="best" from="281333095#1" to="-663577416#5"/>
    <trip id="motorcycle29" type="motorcycle_motorcycle" depart="90.64" departLane="best" departSpeed="max" from="976794425#0" to="24439929#1"/>
    <trip id="motorcycle30" type="motorcycle_motorcycle" depart="93.76" departLane="best" departSpeed="max" from="-281331615#1" to="371222311"/>
    <trip id="motorcycle31" type="motorcycle_motorcycle" depart="96.89" departLane="best" departSpeed="max" from="-24395516#1" to="24395479#2"/>
    <trip id="motorcycle32" type="motorcycle_motorcycle" depart="100.01" departLane="best" from="913677165#0" to="590528031#1"/>
    <trip id="motorcycle33" type="motorcycle_motorcycle" depart="103.14" departLane="best" from="-132975476" to="436800847#1"/>
    <trip id="motorcycle34" type="motorcycle_motorcycle" depart="106.27" departLane="best" from="436800847#0" to="24441637#4"/>
    <trip id="motorcycle35" type="motorcycle_motorcycle" depart="109.39" departLane="best" from="-663577416#0" to="40136352#1"/>
    <trip id="motorcycle36" type="motorcycle_motorcycle" depart="112.52" departLane="best" departSpeed="max" from="-281331615#1" to="-24395517#2"/>
    <trip id="motorcycle37" type="motorcycle_motorcycle" depart="115.64" departLane="best" from="-24395517#4" to="874199605#8"/>
    <trip id="motorcycle38" type="motorcycle_motorcycle" depart="118.77" departLane="best" from="24411340" to="49302758#2"/>
    <trip id="motorcycle39" type="motorcycle_motorcycle" depart="121.89" departLane="best" from="401018405#1" to="-443380448#0"/>
    <trip id="motorcycle40" type="motorcycle_motorcycle" depart="125.02" departLane="best" from="-443772306#8" to="24441637#0"/>
    <trip id="motorcycle41" type="motorcycle_motorcycle" depart="128.14" departLane="best" from="-1007799493#0" to="234414041#1"/>
    <trip id="motorcycle42" type="motorcycle_motorcycle" depart="131.27" departLane="best" from="663502819#0" to="874199605#12"/>
    <trip id="motorcycle43" type="motorcycle_motorcycle" depart="134.40" departLane="best" from="24441637#1" to="24439915#1"/>
    <trip id="motorcycle44" type="motorcycle_motorcycle" depart="137.52" departLane="best" from="443380448#5" to="439431805#1"/>
    <trip id="motorcycle45" type="motorcycle_motorcycle" depart="140.65" departLane="best" from="24441634#1" to="436860978#1"/>
    <trip id="motorcycle46" type="motorcycle_motorcycle" depart="143.77" departLane="best" from="24395508#3" to="24439932#3"/>
    <trip id="motorcycle47" type="motorcycle_motorcycle" depart="146.90" departLane="best" from="-281331620#1" to="535396897#2"/>
    <trip id="motorcycle48" type="motorcycle_motorcycle" depart="150.02" departLane="best" from="184495322#1" to="281333090"/>
    <trip id="motorcycle49" type="motorcycle_motorcycle" depart="153.15" departLane="best" from="-49302776#0" to="-49540948#0"/>
    <trip id="motorcycle50" type="motorcycle_motorcycle" depart="156.27" departLane="best" from="49302775#4" to="693895751#0"/>
    <trip id="motorcycle51" type="motorcycle_motorcycle" depart="159.40" departLane="best" from="535396896#2" to="24395517#5"/>
    <trip id="motorcycle52" type="motorcycle_motorcycle" depart="162.52" departLane="best" from="-49302758#6" to="-443027807#0"/>
    <trip id="motorcycle53" type="motorcycle_motorcycle" depart="165.65" departLane="best" departSpeed="max" from="49302760" to="-49302772#0"/>
    <trip id="motorcycle56" type="motorcycle_motorcycle" depart="175.03" departLane="best" from="583545352" to="-705218284"/>
    <trip id="motorcycle57" type="motorcycle_motorcycle" depart="178.15" departLane="best" from="24395492#5" to="1062163234"/>
    <trip id="motorcycle58" type="motorcycle_motorcycle" depart="181.28" departLane="best" departSpeed="max" from="-590528032#1" to="-774510685#2"/>
    <trip id="motorcycle60" type="motorcycle_motorcycle" depart="187.53" departLane="best" from="-243504222#2" to="915222975#2"/>
    <trip id="motorcycle61" type="motorcycle_motorcycle" depart="190.65" departLane="best" from="-24395517#6" to="24395513#21"/>
    <trip id="motorcycle62" type="motorcycle_motorcycle" depart="193.78" departLane="best" from="912909036#0" to="956162341#2"/>
    <trip id="motorcycle63" type="motorcycle_motorcycle" depart="196.90" departLane="best" from="258491138#4" to="436787889#1"/>
    <trip id="motorcycle64" type="motorcycle_motorcycle" depart="200.03" departLane="best" departSpeed="max" from="-281346545" to="1278955261#0"/>
    <trip id="motorcycle65" type="motorcycle_motorcycle" depart="203.16" departLane="best" from="24441635#1" to="439138548#1"/>
    <trip id="motorcycle66" type="motorcycle_motorcycle" depart="206.28" departLane="best" from="24439915#0" to="506555356#1"/>
    <trip id="motorcycle67" type="motorcycle_motorcycle" depart="209.41" departLane="best" from="-49302783" to="-436707524#1"/>
    <trip id="motorcycle68" type="motorcycle_motorcycle" depart="212.53" departLane="best" from="663577417#3" to="663577417#5"/>
    <trip id="motorcycle69" type="motorcycle_motorcycle" depart="215.66" departLane="best" from="282620842#0" to="282620839"/>
    <trip id="motorcycle70" type="motorcycle_motorcycle" depart="218.78" departLane="best" from="24439929#1" to="874199604#0"/>
    <trip id="motorcycle73" type="motorcycle_motorcycle" depart="228.16" departLane="best" from="436412311" to="440337930#1"/>
    <trip id="motorcycle74" type="motorcycle_motorcycle" depart="231.28" departLane="best" departSpeed="max" from="-24395517#8" to="24395520#6"/>
    <trip id="motorcycle75" type="motorcycle_motorcycle" depart="234.41" departLane="best" from="-663577414" to="874199602#0"/>
    <trip id="motorcycle76" type="motorcycle_motorcycle" depart="237.54" departLane="best" from="234416385#1" to="-443380448#6"/>
    <trip id="motorcycle77" type="motorcycle_motorcycle" depart="240.66" departLane="best" from="401020397" to="921584297#0"/>
    <trip id="motorcycle78" type="motorcycle_motorcycle" depart="243.79" departLane="best" from="436564138#6" to="-132975482#0"/>
    <trip id="motorcycle79" type="motorcycle_motorcycle" depart="246.91" departLane="best" from="49302772#1" to="1278955261#4"/>
    <trip id="motorcycle80" type="motorcycle_motorcycle" depart="250.04" departLane="best" from="436564174#11" to="874199604#4"/>
    <trip id="motorcycle81" type="motorcycle_motorcycle" depart="253.16" departLane="best" departSpeed="max" from="-281333093#1" to="-436707524#0"/>
    <trip id="motorcycle82" type="motorcycle_motorcycle" depart="256.29" departLane="best" from="-663577417#1" to="281334460"/>
    <trip id="motorcycle83" type="motorcycle_motorcycle" depart="259.41" departLane="best" from="-439431805#1" to="-49302777#1"/>
    <trip id="motorcycle84" type="motorcycle_motorcycle" depart="262.54" departLane="best" from="436421202#4" to="1007799493#1"/>
    <trip id="motorcycle85" type="motorcycle_motorcycle" depart="265.66" departLane="best" from="24395521#6" to="693895751#0"/>
    <trip id="motorcycle87" type="motorcycle_motorcycle" depart="271.92" departLane="best" from="436421206#1" to="-976794425#1"/>
    <trip id="motorcycle88" type="motorcycle_motorcycle" depart="275.04" departLane="best" from="704987366#1" to="258491138#9"/>
    <trip id="motorcycle89" type="motorcycle_motorcycle" depart="278.17" departLane="best" from="1184830989" to="663577417#2"/>
    <trip id="motorcycle90" type="motorcycle_motorcycle" depart="281.29" departLane="best" departSpeed="max" from="49302758#0" to="590528031#1"/>
    <trip id="motorcycle91" type="motorcycle_motorcycle" depart="284.42" departLane="best" departSpeed="max" from="-590528032#1" to="281333095#1"/>
    <trip id="motorcycle92" type="motorcycle_motorcycle" depart="287.54" departLane="best" departSpeed="max" from="-281346545" to="85450456#0"/>
    <trip id="motorcycle93" type="motorcycle_motorcycle" depart="290.67" departLane="best" from="-590528032#0" to="914794303"/>
    <trip id="motorcycle94" type="motorcycle_motorcycle" depart="293.79" departLane="best" from="49302766#2" to="642309794#1"/>
    <trip id="motorcycle95" type="motorcycle_motorcycle" depart="296.92" departLane="best" from="49302758#5" to="590528032#1"/>
    <trip id="motorcycle96" type="motorcycle_motorcycle" depart="300.04" departLane="best" from="49302766#2" to="1007833180#1"/>
    <trip id="motorcycle97" type="motorcycle_motorcycle" depart="303.17" departLane="best" from="488874777#0" to="-316464545#0"/>
    <trip id="motorcycle98" type="motorcycle_motorcycle" depart="306.30" departLane="best" from="-49302772#2" to="49302766#2"/>
    <trip id="motorcycle99" type="motorcycle_motorcycle" depart="309.42" departLane="best" from="24395518#5" to="-132975482#2"/>
    <trip id="motorcycle100" type="motorcycle_motorcycle" depart="312.55" departLane="best" departSpeed="max" from="49302758#0" to="-633036598#1"/>
    <trip id="motorcycle101" type="motorcycle_motorcycle" depart="315.67" departLane="best" departSpeed="max" from="184277969" to="590528032#1"/>
    <trip id="motorcycle103" type="motorcycle_motorcycle" depart="321.92" departLane="best" from="436421209" to="24395496#3"/>
    <trip id="motorcycle104" type="motorcycle_motorcycle" depart="325.05" departLane="best" from="-663577417#0" to="24441637#4"/>
    <trip id="motorcycle105" type="motorcycle_motorcycle" depart="328.17" departLane="best" departSpeed="max" from="874181832#0" to="-436707524#0"/>
    <trip id="motorcycle106" type="motorcycle_motorcycle" depart="331.30" departLane="best" from="913677165#0" to="-49302758#2"/>
    <trip id="motorcycle107" type="motorcycle_motorcycle" depart="334.43" departLane="best" departSpeed="max" from="913577602" to="1007799493#1"/>
    <trip id="motorcycle108" type="motorcycle_motorcycle" depart="337.55" departLane="best" departSpeed="max" from="-281331615#1" to="24395517#0"/>
    <trip id="motorcycle110" type="motorcycle_motorcycle" depart="343.80" departLane="best" from="401016556#4" to="-24439931#0"/>
    <trip id="motorcycle111" type="motorcycle_motorcycle" depart="346.93" departLane="best" departSpeed="max" from="-1007799493#1" to="815057830#0"/>
    <trip id="motorcycle112" type="motorcycle_motorcycle" depart="350.05" departLane="best" from="24441625#1" to="436787889#2"/>
    <trip id="motorcycle113" type="motorcycle_motorcycle" depart="353.18" departLane="best" from="436564174#12" to="234415577#8"/>
    <trip id="motorcycle114" type="motorcycle_motorcycle" depart="356.30" departLane="best" from="1278955261#2" to="49540967#2"/>
    <trip id="motorcycle115" type="motorcycle_motorcycle" depart="359.43" departLane="best" from="440337930#2" to="132975476"/>
    <trip id="motorcycle116" type="motorcycle_motorcycle" depart="362.55" departLane="best" from="1243735272#1" to="24395508#13"/>
    <trip id="motorcycle117" type="motorcycle_motorcycle" depart="365.68" departLane="best" departSpeed="max" from="-281333087" to="24395520#7"/>
    <trip id="motorcycle118" type="motorcycle_motorcycle" depart="368.81" departLane="best" from="693895752#1" to="281346545"/>
    <trip id="motorcycle119" type="motorcycle_motorcycle" depart="371.93" departLane="best" departSpeed="max" from="24395508#0" to="281332122"/>
    <trip id="motorcycle120" type="motorcycle_motorcycle" depart="375.06" departLane="best" from="436564138#7" to="24395521#17"/>
    <trip id="motorcycle121" type="motorcycle_motorcycle" depart="378.18" departLane="best" from="24395520#8" to="663577417#5"/>
    <trip id="motorcycle122" type="motorcycle_motorcycle" depart="381.31" departLane="best" departSpeed="max" from="49302758#0" to="49302750#4"/>
    <trip id="motorcycle123" type="motorcycle_motorcycle" depart="384.43" departLane="best" from="24441637#0" to="24439932#13"/>
    <trip id="motorcycle124" type="motorcycle_motorcycle" depart="387.56" departLane="best" from="436412311" to="234416385#1"/>
    <trip id="motorcycle125" type="motorcycle_motorcycle" depart="390.68" departLane="best" from="49302772#2" to="440337930#0"/>
    <trip id="motorcycle126" type="motorcycle_motorcycle" depart="393.81" departLane="best" from="583545353" to="24404182#1"/>
    <trip id="motorcycle127" type="motorcycle_motorcycle" depart="396.93" departLane="best" from="24395491#3" to="401016556#1"/>
    <trip id="motorcycle128" type="motorcycle_motorcycle" depart="400.06" departLane="best" from="443380448#6" to="436564173#1"/>
    <trip id="motorcycle129" type="motorcycle_motorcycle" depart="403.19" departLane="best" from="24404183#0" to="-663577417#2"/>
    <trip id="motorcycle130" type="motorcycle_motorcycle" depart="406.31" departLane="best" from="436564138#9" to="-1062163231"/>
    <trip id="motorcycle131" type="motorcycle_motorcycle" depart="409.44" departLane="best" departSpeed="max" from="443194826#0" to="442913603#0"/>
    <trip id="motorcycle132" type="motorcycle_motorcycle" depart="412.56" departLane="best" from="-281331612" to="24395513#21"/>
    <trip id="motorcycle133" type="motorcycle_motorcycle" depart="415.69" departLane="best" from="-442066694#1" to="912830349#1"/>
    <trip id="motorcycle134" type="motorcycle_motorcycle" depart="418.81" departLane="best" departSpeed="max" from="-590528032#1" to="49540967#3"/>
    <trip id="motorcycle135" type="motorcycle_motorcycle" depart="421.94" departLane="best" from="436564174#4" to="921584297#1"/>
    <trip id="motorcycle136" type="motorcycle_motorcycle" depart="425.06" departLane="best" from="282620842#1" to="874199605#2"/>
    <trip id="motorcycle137" type="motorcycle_motorcycle" depart="428.19" departLane="best" from="663577417#5" to="281346544"/>
    <trip id="motorcycle138" type="motorcycle_motorcycle" depart="431.31" departLane="best" from="49302777#4" to="276301093#1"/>
    <trip id="motorcycle140" type="motorcycle_motorcycle" depart="437.57" departLane="best" from="-663577417#0" to="188795650#1"/>
    <trip id="motorcycle142" type="motorcycle_motorcycle" depart="443.82" departLane="best" from="24395474#6" to="258491138#5"/>
    <trip id="motorcycle143" type="motorcycle_motorcycle" depart="446.94" departLane="best" from="24395492#3" to="693895750#0"/>
    <trip id="motorcycle144" type="motorcycle_motorcycle" depart="450.07" departLane="best" from="281333095#0" to="436564173#1"/>
    <trip id="motorcycle145" type="motorcycle_motorcycle" depart="453.19" departLane="best" from="508310160" to="442913601#1"/>
    <trip id="motorcycle146" type="motorcycle_motorcycle" depart="456.32" departLane="best" departSpeed="max" from="234414041#0" to="440337930#5"/>
    <trip id="motorcycle147" type="motorcycle_motorcycle" depart="459.44" departLane="best" from="759583924#0" to="874199605#7"/>
    <trip id="motorcycle148" type="motorcycle_motorcycle" depart="462.57" departLane="best" from="-24441637#3" to="281334459#1"/>
    <trip id="motorcycle149" type="motorcycle_motorcycle" depart="465.69" departLane="best" departSpeed="max" from="-49302767#2" to="-49540948#0"/>
    <trip id="motorcycle150" type="motorcycle_motorcycle" depart="468.82" departLane="best" from="184495320#2" to="436421210#3"/>
    <trip id="motorcycle151" type="motorcycle_motorcycle" depart="471.95" departLane="best" from="24395474#1" to="-443772306#5"/>
    <trip id="motorcycle152" type="motorcycle_motorcycle" depart="475.07" departLane="best" from="234414043#1" to="40136352#1"/>
    <trip id="motorcycle153" type="motorcycle_motorcycle" depart="478.20" departLane="best" departSpeed="max" from="-24395464#2" to="24395475#1"/>
    <trip id="motorcycle154" type="motorcycle_motorcycle" depart="481.32" departLane="best" from="-49302758#2" to="-234414043#1"/>
    <trip id="motorcycle155" type="motorcycle_motorcycle" depart="484.45" departLane="best" departSpeed="max" from="443194826#0" to="49302776#1"/>
    <trip id="motorcycle156" type="motorcycle_motorcycle" depart="487.57" departLane="best" from="874199605#2" to="49302775#2"/>
    <trip id="motorcycle157" type="motorcycle_motorcycle" depart="490.70" departLane="best" from="-184495322#0" to="-443380444"/>
    <trip id="motorcycle158" type="motorcycle_motorcycle" depart="493.82" departLane="best" departSpeed="max" from="-281333087" to="436421208#0"/>
    <trip id="motorcycle159" type="motorcycle_motorcycle" depart="496.95" departLane="best" from="276330566#1" to="49540860#3"/>
    <trip id="motorcycle161" type="motorcycle_motorcycle" depart="503.20" departLane="best" from="912909036#1" to="24395492#8"/>
    <trip id="motorcycle162" type="motorcycle_motorcycle" depart="506.33" departLane="best" from="439138548#2" to="-24439924#2"/>
    <trip id="motorcycle163" type="motorcycle_motorcycle" depart="509.45" departLane="best" from="436860976#7" to="371222311"/>
    <trip id="motorcycle164" type="motorcycle_motorcycle" depart="512.58" departLane="best" from="49302777#4" to="281334459#1"/>
    <trip id="motorcycle165" type="motorcycle_motorcycle" depart="515.70" departLane="best" from="-281331620#1" to="436564174#3"/>
    <trip id="motorcycle166" type="motorcycle_motorcycle" depart="518.83" departLane="best" departSpeed="max" from="474813980#0" to="243504224#2"/>
    <trip id="motorcycle167" type="motorcycle_motorcycle" depart="521.95" departLane="best" departSpeed="max" from="24395508#0" to="24395474#2"/>
    <trip id="motorcycle168" type="motorcycle_motorcycle" depart="525.08" departLane="best" from="49540967#0" to="49302767#2"/>
    <trip id="motorcycle169" type="motorcycle_motorcycle" depart="528.20" departLane="best" from="436421206#3" to="49302775#1"/>
    <trip id="motorcycle170" type="motorcycle_motorcycle" depart="531.33" departLane="best" from="-663577416#4" to="49302750#6"/>
    <trip id="motorcycle171" type="motorcycle_motorcycle" depart="534.46" departLane="best" from="663577416#2" to="506555356#0"/>
    <trip id="motorcycle172" type="motorcycle_motorcycle" depart="537.58" departLane="best" from="49302777#4" to="-24441638#0"/>
    <trip id="motorcycle173" type="motorcycle_motorcycle" depart="540.71" departLane="best" from="-663577413" to="663577417#2"/>
    <trip id="motorcycle174" type="motorcycle_motorcycle" depart="543.83" departLane="best" from="24395520#1" to="281346544"/>
    <trip id="motorcycle175" type="motorcycle_motorcycle" depart="546.96" departLane="best" from="-243504222#2" to="-234414041#2"/>
    <trip id="motorcycle176" type="motorcycle_motorcycle" depart="550.08" departLane="best" from="49540967#2" to="49302758#6"/>
    <trip id="motorcycle178" type="motorcycle_motorcycle" depart="556.33" departLane="best" departSpeed="max" from="-1062163234" to="874199605#12"/>
    <trip id="motorcycle179" type="motorcycle_motorcycle" depart="559.46" departLane="best" from="-24441637#1" to="436800847#0"/>
    <trip id="motorcycle180" type="motorcycle_motorcycle" depart="562.58" departLane="best" from="24395521#6" to="442066694#1"/>
    <trip id="motorcycle181" type="motorcycle_motorcycle" depart="565.71" departLane="best" from="436860976#7" to="-40136357#1"/>
    <trip id="motorcycle182" type="motorcycle_motorcycle" depart="568.84" departLane="best" from="24395521#9" to="-443772305#1"/>
    <trip id="motorcycle183" type="motorcycle_motorcycle" depart="571.96" departLane="best" from="-276301089" to="-49540948#0"/>
    <trip id="motorcycle184" type="motorcycle_motorcycle" depart="575.09" departLane="best" from="436860978#0" to="132975482#4"/>
    <trip id="motorcycle185" type="motorcycle_motorcycle" depart="578.21" departLane="best" from="281333088" to="24395521#9"/>
    <trip id="motorcycle186" type="motorcycle_motorcycle" depart="581.34" departLane="best" from="24439932#3" to="24395513#21"/>
    <trip id="motorcycle187" type="motorcycle_motorcycle" depart="584.46" departLane="best" from="443027807#2" to="234415577#9"/>
    <trip id="motorcycle188" type="motorcycle_motorcycle" depart="587.59" departLane="best" from="-443380448#3" to="-436707524#0"/>
    <trip id="motorcycle189" type="motorcycle_motorcycle" depart="590.71" departLane="best" from="24441603#2" to="442066694#2"/>
    <trip id="motorcycle190" type="motorcycle_motorcycle" depart="593.84" departLane="best" from="443027807#4" to="-49540860#1"/>
    <trip id="motorcycle191" type="motorcycle_motorcycle" depart="596.96" departLane="best" from="24395521#19" to="436860976#1"/>
    <trip id="motorcycle192" type="motorcycle_motorcycle" depart="600.09" departLane="best" from="914795390#1" to="24441625#1"/>
    <trip id="motorcycle193" type="motorcycle_motorcycle" depart="603.22" departLane="best" from="-866847486#0" to="-281333088"/>
    <trip id="motorcycle194" type="motorcycle_motorcycle" depart="606.34" departLane="best" from="-443380448#6" to="-633036598#1"/>
    <trip id="motorcycle195" type="motorcycle_motorcycle" depart="609.47" departLane="best" departSpeed="max" from="-442066694#2" to="-184277969"/>
    <trip id="motorcycle196" type="motorcycle_motorcycle" depart="612.59" departLane="best" departSpeed="max" from="437322873#0" to="437322875#3"/>
    <trip id="motorcycle197" type="motorcycle_motorcycle" depart="615.72" departLane="best" from="633036598#3" to="281331619"/>
    <trip id="motorcycle198" type="motorcycle_motorcycle" depart="618.84" departLane="best" from="24395520#3" to="24395517#8"/>
    <trip id="motorcycle199" type="motorcycle_motorcycle" depart="621.97" departLane="best" from="-443027807#3" to="-243504222#2"/>
    <trip id="motorcycle200" type="motorcycle_motorcycle" depart="625.09" departLane="best" from="874199601#0" to="24404183#1"/>
    <trip id="motorcycle201" type="motorcycle_motorcycle" depart="628.22" departLane="best" from="24439902#1" to="401016556#1"/>
    <trip id="motorcycle203" type="motorcycle_motorcycle" depart="634.47" departLane="best" from="-49302750#3" to="590528032#0"/>
    <trip id="motorcycle204" type="motorcycle_motorcycle" depart="637.60" departLane="best" from="24439929#1" to="24395518#9"/>
    <trip id="motorcycle205" type="motorcycle_motorcycle" depart="640.72" departLane="best" from="956162341#1" to="-132975482#2"/>
    <trip id="motorcycle206" type="motorcycle_motorcycle" depart="643.85" departLane="best" from="-40138389" to="281346544"/>
    <trip id="motorcycle207" type="motorcycle_motorcycle" depart="646.97" departLane="best" from="-439431805#1" to="24439924#1"/>
    <trip id="motorcycle208" type="motorcycle_motorcycle" depart="650.10" departLane="best" from="282620839" to="1258678906"/>
    <trip id="motorcycle209" type="motorcycle_motorcycle" depart="653.22" departLane="best" from="437322875#1" to="437322875#3"/>
    <trip id="motorcycle210" type="motorcycle_motorcycle" depart="656.35" departLane="best" from="436860976#2" to="-774510685#3"/>
    <trip id="motorcycle211" type="motorcycle_motorcycle" depart="659.47" departLane="best" from="488874777#1" to="371222311"/>
    <trip id="motorcycle212" type="motorcycle_motorcycle" depart="662.60" departLane="best" departSpeed="max" from="436564174#0" to="874199602#0"/>
    <trip id="motorcycle213" type="motorcycle_motorcycle" depart="665.72" departLane="best" from="24395496#1" to="258491138#7"/>
    <trip id="motorcycle214" type="motorcycle_motorcycle" depart="668.85" departLane="best" from="436564138#0" to="704987366#0"/>
    <trip id="motorcycle216" type="motorcycle_motorcycle" depart="675.10" departLane="best" departSpeed="max" from="443194826#0" to="281331617"/>
    <trip id="motorcycle217" type="motorcycle_motorcycle" depart="678.23" departLane="best" from="436860976#4" to="436564174#1"/>
    <trip id="motorcycle218" type="motorcycle_motorcycle" depart="681.35" departLane="best" from="874199603#2" to="24439924#5"/>
    <trip id="motorcycle219" type="motorcycle_motorcycle" depart="684.48" departLane="best" from="24404182#2" to="-24439931#0"/>
    <trip id="motorcycle220" type="motorcycle_motorcycle" depart="687.60" departLane="best" departSpeed="max" from="-24441637#4" to="912909036#0"/>
    <trip id="motorcycle221" type="motorcycle_motorcycle" depart="690.73" departLane="best" from="874199605#4" to="976794425#1"/>
    <trip id="motorcycle223" type="motorcycle_motorcycle" depart="696.98" departLane="best" from="24332864#1" to="441954990"/>
    <trip id="motorcycle224" type="motorcycle_motorcycle" depart="700.10" departLane="best" from="760776542#0" to="49302758#6"/>