<?xml version="1.0" encoding="UTF-8"?>

<!-- generated on 2024-07-15 17:36:08.943963 by osmWebWizard.py v1_19_0+0000-baa66a0f364
<configuration>
    <net-file value="C:\Users\Pichau\Desktop\Faculdade\UFC\BOLSA\2024Project\2024-07-15-17-35-13\osm.net.xml.gz"/>
    <output-trip-file value="C:\Users\Pichau\Desktop\Faculdade\UFC\BOLSA\2024Project\2024-07-15-17-35-13\osm.bicycle.trips.xml"/>
    <route-file value="C:\Users\Pichau\Desktop\Faculdade\UFC\BOLSA\2024Project\2024-07-15-17-35-13\osm.bicycle.rou.xml"/>
    <prefix value="bike"/>
    <trip-attributes value="departLane=&quot;best&quot;"/>
    <fringe-start-attributes value="departSpeed=&quot;max&quot;"/>
    <vehicle-class value="bicycle"/>
    <fringe-factor value="2"/>
    <vclass value="bicycle"/>
    <via-edge-types value="highway.motorway,highway.motorway_link,highway.trunk_link,highway.primary_link,highway.secondary_link,highway.tertiary_link"/>
    <max-distance value="8000.0"/>
    <remove-loops value="True"/>
    <validate value="True"/>
    <end value="1000.0"/>
    <insertion-density value="6.0"/>
</configuration>
-->

<!-- generated on 2024-07-15 17:36:08 by Eclipse SUMO duarouter Version 1.19.0
<configuration xmlns:xsi="http://www.w3.org/2001/XMLSchema-instance" xsi:noNamespaceSchemaLocation="http://sumo.dlr.de/xsd/duarouterConfiguration.xsd">

    <input>
        <net-file value="C:\Users\Pichau\Desktop\Faculdade\UFC\BOLSA\2024Project\2024-07-15-17-35-13\osm.net.xml.gz"/>
        <route-files value="C:\Users\Pichau\Desktop\Faculdade\UFC\BOLSA\2024Project\2024-07-15-17-35-13\osm.bicycle.trips.xml"/>
    </input>

    <output>
        <output-file value="C:\Users\Pichau\Desktop\Faculdade\UFC\BOLSA\2024Project\2024-07-15-17-35-13\osm.bicycle.trips.xml.tmp"/>
        <alternatives-output value="NUL"/>
        <write-trips value="true"/>
    </output>

    <processing>
        <remove-loops value="true"/>
    </processing>

    <time>
        <begin value="0.0"/>
        <end value="1000.0"/>
    </time>

    <report>
        <no-warnings value="true"/>
        <ignore-errors value="true"/>
        <no-step-log value="true"/>
    </report>

</configuration>
-->

<routes xmlns:xsi="http://www.w3.org/2001/XMLSchema-instance" xsi:noNamespaceSchemaLocation="http://sumo.dlr.de/xsd/routes_file.xsd">
    <vType id="bike_bicycle" vClass="bicycle"/>
    <trip id="bike0" type="bike_bicycle" depart="0.00" departLane="best" from="281331616" to="-1162937876"/>
    <trip id="bike1" type="bike_bicycle" depart="4.12" departLane="best" from="-506555354#1" to="49302750#4"/>
    <trip id="bike2" type="bike_bicycle" depart="8.24" departLane="best" from="436860976#4" to="431536385#0"/>
    <trip id="bike3" type="bike_bicycle" depart="12.37" departLane="best" departSpeed="max" from="671060625#0" to="-24395475#0"/>
    <trip id="bike5" type="bike_bicycle" depart="20.61" departLane="best" from="443194826#1" to="24395513#4"/>
    <trip id="bike6" type="bike_bicycle" depart="24.73" departLane="best" from="-1162811220#0" to="-443380441#0"/>
    <trip id="bike7" type="bike_bicycle" depart="28.86" departLane="best" from="281334461#0" to="24404182#2"/>
    <trip id="bike8" type="bike_bicycle" depart="32.98" departLane="best" from="-443380441#2" to="24441635#1"/>
    <trip id="bike9" type="bike_bicycle" depart="37.10" departLane="best" from="488874777#1" to="-1107608488#0"/>
    <trip id="bike10" type="bike_bicycle" depart="41.22" departLane="best" from="447971783#1" to="436564138#10"/>
    <trip id="bike11" type="bike_bicycle" depart="45.34" departLane="best" from="769199608#0" to="-316464545#1"/>
    <trip id="bike12" type="bike_bicycle" depart="49.47" departLane="best" from="-912830349#0" to="-970973326#0"/>
    <trip id="bike13" type="bike_bicycle" depart="53.59" departLane="best" from="24395491#0" to="-24395508#5"/>
    <trip id="bike14" type="bike_bicycle" depart="57.71" departLane="best" departSpeed="max" from="49540948#0" to="-276301093#0"/>
    <trip id="bike15" type="bike_bicycle" depart="61.83" departLane="best" departSpeed="max" from="474813980#0" to="436860976#4"/>
    <trip id="bike16" type="bike_bicycle" depart="65.95" departLane="best" from="24395517#0" to="914804631#1"/>
    <trip id="bike17" type="bike_bicycle" depart="70.08" departLane="best" from="-970973326#5" to="24439902#1"/>
    <trip id="bike18" type="bike_bicycle" depart="74.20" departLane="best" from="49302772#3" to="281331615#0"/>
    <trip id="bike19" type="bike_bicycle" depart="78.32" departLane="best" from="589880250#1" to="-24439932#11"/>
    <trip id="bike20" type="bike_bicycle" depart="82.44" departLane="best" from="436421210#6" to="184279433#3"/>
    <trip id="bike21" type="bike_bicycle" depart="86.57" departLane="best" from="443380448#8" to="663705804"/>
    <trip id="bike22" type="bike_bicycle" depart="90.69" departLane="best" from="243504222#2" to="-49302760"/>
    <trip id="bike23" type="bike_bicycle" depart="94.81" departLane="best" from="-24395508#5" to="663577413"/>
    <trip id="bike25" type="bike_bicycle" depart="103.05" departLane="best" from="914804630#1" to="443772305#2"/>
    <trip id="bike26" type="bike_bicycle" depart="107.18" departLane="best" from="-49302777#3" to="24404182#1"/>
    <trip id="bike27" type="bike_bicycle" depart="111.30" departLane="best" from="281333095#3" to="281310227"/>
    <trip id="bike28" type="bike_bicycle" depart="115.42" departLane="best" from="-281346539#1" to="436860976#4"/>
    <trip id="bike29" type="bike_bicycle" depart="119.54" departLane="best" departSpeed="max" from="-281333093#1" to="1163080361"/>
    <trip id="bike30" type="bike_bicycle" depart="123.67" departLane="best" from="956162341#5" to="-281346533#0"/>
    <trip id="bike31" type="bike_bicycle" depart="127.79" departLane="best" departSpeed="max" from="24395521#0" to="436421204#0"/>
    <trip id="bike32" type="bike_bicycle" depart="131.91" departLane="best" departSpeed="max" from="49540860#0" to="443380448#6"/>
    <trip id="bike33" type="bike_bicycle" depart="136.03" departLane="best" departSpeed="max" from="-443768938" to="-1202375581"/>
    <trip id="bike34" type="bike_bicycle" depart="140.15" departLane="best" from="-663577417#4" to="-633036599"/>
    <trip id="bike35" type="bike_bicycle" depart="144.28" departLane="best" from="442066694#1" to="874199604#2"/>
    <trip id="bike36" type="bike_bicycle" depart="148.40" departLane="best" from="663502819#0" to="-774510685#2"/>
    <trip id="bike37" type="bike_bicycle" depart="152.52" departLane="best" from="281346535" to="1184830990"/>
    <trip id="bike38" type="bike_bicycle" depart="156.64" departLane="best" departSpeed="max" from="739013055#0" to="24395466#0"/>
    <trip id="bike39" type="bike_bicycle" depart="160.76" departLane="best" from="-49302776#1" to="-49302776#1"/>
    <trip id="bike40" type="bike_bicycle" depart="164.89" departLane="best" from="24395521#17" to="-589880254"/>
    <trip id="bike41" type="bike_bicycle" depart="169.01" departLane="best" from="24439915#8" to="705218284"/>
    <trip id="bike42" type="bike_bicycle" depart="173.13" departLane="best" from="1107736395#1" to="-474813980#1"/>
    <trip id="bike43" type="bike_bicycle" depart="177.25" departLane="best" from="976792635" to="24395517#0"/>
    <trip id="bike44" type="bike_bicycle" depart="181.38" departLane="best" from="-24395475#0" to="184279433#4"/>
    <trip id="bike45" type="bike_bicycle" depart="185.50" departLane="best" departSpeed="max" from="-24395517#8" to="281333087"/>
    <trip id="bike46" type="bike_bicycle" depart="189.62" departLane="best" from="443772304#0" to="184495320#3"/>
    <trip id="bike47" type="bike_bicycle" depart="193.74" departLane="best" from="-218314805#1" to="1163505297#1"/>
    <trip id="bike48" type="bike_bicycle" depart="197.86" departLane="best" from="-970973326#6" to="24395520#6"/>
    <trip id="bike49" type="bike_bicycle" depart="201.99" departLane="best" from="914799109#0" to="-633036598#0"/>
    <trip id="bike51" type="bike_bicycle" depart="210.23" departLane="best" from="-40138389" to="24395521#2"/>
    <trip id="bike52" type="bike_bicycle" depart="214.35" departLane="best" from="49302777#2" to="281346534"/>
    <trip id="bike53" type="bike_bicycle" depart="218.48" departLane="best" from="24404182#0" to="234415577#8"/>
    <trip id="bike54" type="bike_bicycle" depart="222.60" departLane="best" departSpeed="max" from="218314805#0" to="874199605#8"/>
    <trip id="bike55" type="bike_bicycle" depart="226.72" departLane="best" from="-649275688#5" to="589880256#0"/>
    <trip id="bike56" type="bike_bicycle" depart="230.84" departLane="best" from="24395474#7" to="-439138547#0"/>
    <trip id="bike57" type="bike_bicycle" depart="234.96" departLane="best" from="738079513#2" to="663502819#1"/>
    <trip id="bike58" type="bike_bicycle" depart="239.09" departLane="best" from="-642563377" to="281334462"/>
    <trip id="bike59" type="bike_bicycle" depart="243.21" departLane="best" from="24441603#1" to="-281346542#1"/>
    <trip id="bike60" type="bike_bicycle" depart="247.33" departLane="best" departSpeed="max" from="441954987#0" to="24395521#5"/>
    <trip id="bike61" type="bike_bicycle" depart="251.45" departLane="best" departSpeed="max" from="443194826#0" to="24395520#8"/>
    <trip id="bike62" type="bike_bicycle" depart="255.57" departLane="best" from="-1007799493#0" to="-874139931#2"/>
    <trip id="bike63" type="bike_bicycle" depart="259.70" departLane="best" from="-1107751933#1" to="866958562"/>
    <trip id="bike64" type="bike_bicycle" depart="263.82" departLane="best" from="663577412#0" to="49540948#2"/>
    <trip id="bike65" type="bike_bicycle" depart="267.94" departLane="best" from="-663577414" to="-234414041#0"/>
    <trip id="bike66" type="bike_bicycle" depart="272.06" departLane="best" from="663577411" to="874199605#10"/>
    <trip id="bike67" type="bike_bicycle" depart="276.19" departLane="best" from="243916021#0" to="24395496#1"/>
    <trip id="bike68" type="bike_bicycle" depart="280.31" departLane="best" from="-234415577#1" to="442913602"/>
    <trip id="bike69" type="bike_bicycle" depart="284.43" departLane="best" from="442066694#1" to="-276301093#0"/>
    <trip id="bike70" type="bike_bicycle" depart="288.55" departLane="best" from="243504222#1" to="24411335#4"/>
    <trip id="bike71" type="bike_bicycle" depart="292.67" departLane="best" from="-49302777#0" to="663577412#0"/>
    <trip id="bike72" type="bike_bicycle" depart="296.80" departLane="best" from="-1184830989" to="443772306#11"/>
    <trip id="bike73" type="bike_bicycle" depart="300.92" departLane="best" from="-24395517#6" to="436860976#5"/>
    <trip id="bike74" type="bike_bicycle" depart="305.04" departLane="best" from="-439138547#1" to="769199608#2"/>
    <trip id="bike75" type="bike_bicycle" depart="309.16" departLane="best" from="970973326#3" to="281346546"/>
    <trip id="bike76" type="bike_bicycle" depart="313.29" departLane="best" from="132975482#4" to="24395518#3"/>
    <trip id="bike77" type="bike_bicycle" depart="317.41" departLane="best" from="-24439924#5" to="-49302750#6"/>
    <trip id="bike79" type="bike_bicycle" depart="325.65" departLane="best" from="-443772305#0" to="-474813980#2"/>
    <trip id="bike80" type="bike_bicycle" depart="329.77" departLane="best" from="-234415577#8" to="281333093#1"/>
    <trip id="bike81" type="bike_bicycle" depart="333.90" departLane="best" departSpeed="max" from="-443768938" to="-738079511#2"/>
    <trip id="bike82" type="bike_bicycle" depart="338.02" departLane="best" from="535396897#2" to="234416385#7"/>
    <trip id="bike83" type="bike_bicycle" depart="342.14" departLane="best" from="-446886496#0" to="-40136357#0"/>
    <trip id="bike84" type="bike_bicycle" depart="346.26" departLane="best" from="-442934133#0" to="-281310233#0"/>
    <trip id="bike85" type="bike_bicycle" depart="350.38" departLane="best" from="-913905826" to="24439927#5"/>
    <trip id="bike86" type="bike_bicycle" depart="354.51" departLane="best" from="243228724#1" to="443772305#1"/>
    <trip id="bike87" type="bike_bicycle" depart="358.63" departLane="best" departSpeed="max" from="474813980#0" to="-442934133#1"/>
    <trip id="bike88" type="bike_bicycle" depart="362.75" departLane="best" from="-24395508#13" to="-234414041#6"/>
    <trip id="bike89" type="bike_bicycle" depart="366.87" departLane="best" from="-1202375583#1" to="24395474#5"/>
    <trip id="bike90" type="bike_bicycle" depart="371.00" departLane="best" from="436787889#1" to="40138395#0"/>
    <trip id="bike91" type="bike_bicycle" depart="375.12" departLane="best" from="921584299#0" to="24395516#0"/>
    <trip id="bike92" type="bike_bicycle" depart="379.24" departLane="best" departSpeed="max" from="1107751940#0" to="970973326#5"/>
    <trip id="bike93" type="bike_bicycle" depart="383.36" departLane="best" from="589880250#1" to="-49302777#2"/>
    <trip id="bike94" type="bike_bicycle" depart="387.48" departLane="best" from="436564174#11" to="243504225#2"/>
    <trip id="bike95" type="bike_bicycle" depart="391.61" departLane="best" from="1184830988#0" to="-663577414"/>
    <trip id="bike96" type="bike_bicycle" depart="395.73" departLane="best" from="-49302758#5" to="832722405"/>
    <trip id="bike97" type="bike_bicycle" depart="399.85" departLane="best" from="184279433#1" to="-633036598#1"/>
    <trip id="bike98" type="bike_bicycle" depart="403.97" departLane="best" from="24395520#12" to="-184495322#0"/>
    <trip id="bike99" type="bike_bicycle" depart="408.10" departLane="best" departSpeed="max" from="976794425#0" to="506555354#1"/>
    <trip id="bike100" type="bike_bicycle" depart="412.22" departLane="best" from="914794302" to="866847486#0"/>
    <trip id="bike101" type="bike_bicycle" depart="416.34" departLane="best" from="-49540948#1" to="-436564174#12"/>
    <trip id="bike102" type="bike_bicycle" depart="420.46" departLane="best" from="243504237#4" to="443772306#7"/>
    <trip id="bike103" type="bike_bicycle" depart="424.58" departLane="best" from="1107751933#3" to="-234414041#1"/>
    <trip id="bike104" type="bike_bicycle" depart="428.71" departLane="best" from="-970973326#6" to="921584300"/>
    <trip id="bike105" type="bike_bicycle" depart="432.83" departLane="best" from="-49302777#0" to="443772305#0"/>
    <trip id="bike106" type="bike_bicycle" depart="436.95" departLane="best" from="218314805#2" to="184495322#1"/>
    <trip id="bike107" type="bike_bicycle" depart="441.07" departLane="best" from="-912830349#0" to="970973326#5"/>
    <trip id="bike108" type="bike_bicycle" depart="445.19" departLane="best" from="24395520#8" to="436707524#1"/>
    <trip id="bike109" type="bike_bicycle" depart="449.32" departLane="best" departSpeed="max" from="-281331619" to="-688934952#2"/>
    <trip id="bike110" type="bike_bicycle" depart="453.44" departLane="best" from="914794302" to="-24439932#3"/>
    <trip id="bike111" type="bike_bicycle" depart="457.56" departLane="best" from="24395518#2" to="440337930#2"/>
    <trip id="bike112" type="bike_bicycle" depart="461.68" departLane="best" from="-184279436" to="24441603#2"/>
    <trip id="bike113" type="bike_bicycle" depart="465.81" departLane="best" from="24395479#2" to="590528030#1"/>
    <trip id="bike114" type="bike_bicycle" depart="469.93" departLane="best" from="-281332123" to="913577600#0"/>
    <trip id="bike115" type="bike_bicycle" depart="474.05" departLane="best" from="243504225#1" to="441954987#1"/>
    <trip id="bike116" type="bike_bicycle" depart="478.17" departLane="best" from="24439927#0" to="40138395#2"/>
    <trip id="bike117" type="bike_bicycle" depart="482.29" departLane="best" from="-443772306#7" to="-24439932#13"/>
    <trip id="bike118" type="bike_bicycle" depart="486.42" departLane="best" from="-663705804" to="49302776#0"/>
    <trip id="bike119" type="bike_bicycle" depart="490.54" departLane="best" from="24439926#3" to="281331615#1"/>
    <trip id="bike120" type="bike_bicycle" depart="494.66" departLane="best" from="1184822434" to="24441603#2"/>
    <trip id="bike122" type="bike_bicycle" depart="502.91" departLane="best" from="440337930#0" to="-436564174#9"/>
    <trip id="bike123" type="bike_bicycle" depart="507.03" departLane="best" from="-446886496#1" to="1202375583#1"/>
    <trip id="bike124" type="bike_bicycle" depart="511.15" departLane="best" from="401016556#5" to="705248736"/>
    <trip id="bike125" type="bike_bicycle" depart="515.27" departLane="best" from="663577417#5" to="441084519"/>
    <trip id="bike126" type="bike_bicycle" depart="519.39" departLane="best" departSpeed="max" from="-234415577#9" to="24395464#2"/>
    <trip id="bike127" type="bike_bicycle" depart="523.52" departLane="best" departSpeed="max" from="976794425#0" to="970973326#6"/>
    <trip id="bike128" type="bike_bicycle" depart="527.64" departLane="best" from="234416385#2" to="443772306#7"/>
    <trip id="bike129" type="bike_bicycle" depart="531.76" departLane="best" from="-49302777#0" to="866989142#1"/>
    <trip id="bike130" type="bike_bicycle" depart="535.88" departLane="best" from="663577415" to="663577417#1"/>
    <trip id="bike131" type="bike_bicycle" depart="540.01" departLane="best" from="-913905826" to="-401016556#3"/>
    <trip id="bike132" type="bike_bicycle" depart="544.13" departLane="best" from="49302775#3" to="436564138#6"/>
    <trip id="bike133" type="bike_bicycle" depart="548.25" departLane="best" from="24441625#1" to="927781677"/>
    <trip id="bike134" type="bike_bicycle" depart="552.37" departLane="best" from="-281346533#1" to="-1107608730#1"/>
    <trip id="bike135" type="bike_bicycle" depart="556.49" departLane="best" from="49302758#1" to="-705247767"/>
    <trip id="bike137" type="bike_bicycle" depart="564.74" departLane="best" departSpeed="max" from="-24441637#4" to="24439930#1"/>
    <trip id="bike138" type="bike_bicycle" depart="568.86" departLane="best" from="-24395517#4" to="24439915#1"/>
    <trip id="bike139" type="bike_bicycle" depart="572.98" departLane="best" departSpeed="max" from="-49540883#2" to="-276301093#1"/>
    <trip id="bike140" type="bike_bicycle" depart="577.10" departLane="best" from="436564174#12" to="-443380448#2"/>
    <trip id="bike141" type="bike_bicycle" depart="581.23" departLane="best" from="-281310233#0" to="590528030#0"/>
    <trip id="bike142" type="bike_bicycle" depart="585.35" departLane="best" from="24395460#2" to="-738079511#2"/>
    <trip id="bike143" type="bike_bicycle" depart="589.47" departLane="best" from="49540860#6" to="-24395508#13"/>
    <trip id="bike144" type="bike_bicycle" depart="593.59" departLane="best" from="-1202375583#1" to="663577412#0"/>
    <trip id="bike145" type="bike_bicycle" depart="597.72" departLane="best" departSpeed="max" from="-1062163234" to="443380444"/>
    <trip id="bike146" type="bike_bicycle" depart="601.84" departLane="best" departSpeed="max" from="281328724" to="-583545353"/>
    <trip id="bike147" type="bike_bicycle" depart="605.96" departLane="best" departSpeed="max" from="437322873#0" to="24439902#0"/>
    <trip id="bike148" type="bike_bicycle" depart="610.08" departLane="best" from="1243735272#3" to="-1107726823#0"/>
    <trip id="bike149" type="bike_bicycle" depart="614.20" departLane="best" from="-234416385#6" to="-663577417#6"/>
    <trip id="bike151" type="bike_bicycle" depart="622.45" departLane="best" from="49302775#4" to="24441603#0"/>
    <trip id="bike152" type="bike_bicycle" depart="626.57" departLane="best" departSpeed="max" from="-281331611" to="-24441638#0"/>
    <trip id="bike154" type="bike_bicycle" depart="634.82" departLane="best" from="-443772305#1" to="-633036598#0"/>
    <trip id="bike155" type="bike_bicycle" depart="638.94" departLane="best" from="693895750#0" to="443772306#0"/>
    <trip id="bike156" type="bike_bicycle" depart="643.06" departLane="best" from="49302758#4" to="-24395517#6"/>
    <trip id="bike157" type="bike_bicycle" depart="647.18" departLane="best" from="443194826#2" to="663705804"/>
    <trip id="bike158" type="bike_bicycle" depart="651.30" departLane="best" from="-1162811218#0" to="281331616"/>
    <trip id="bike159" type="bike_bicycle" depart="655.43" departLane="best" departSpeed="max" from="-281331619" to="866958563#0"/>
    <trip id="bike160" type="bike_bicycle" depart="659.55" departLane="best" from="589880256#1" to="914815913#1"/>
    <trip id="bike161" type="bike_bicycle" depart="663.67" departLane="best" from="-49302750#1" to="-663577417#4"/>
    <trip id="bike162" type="bike_bicycle" depart="667.79" departLane="best" departSpeed="max" from="-1162811218#1" to="437322875#3"/>
    <trip id="bike163" type="bike_bicycle" depart="671.91" departLane="best" departSpeed="max" from="-738079502#4" to="866958563#2"/>
    <trip id="bike164" type="bike_bicycle" depart="676.04" departLane="best" from="446695145#0" to="636404502#1"/>
    <trip id="bike165" type="bike_bicycle" depart="680.16" departLane="best" from="-49302750#1" to="-633036598#2"/>
    <trip id="bike166" type="bike_bicycle" depart="684.28" departLane="best" from="443380448#4" to="24411335#3"/>
    <trip id="bike167" type="bike_bicycle" depart="688.40" departLane="best" from="633036598#3" to="633036595"/>
    <trip id="bike168" type="bike_bicycle" depart="692.53" departLane="best" from="-443027807#3" to="49302775#0"/>
    <trip id="bike169" type="bike_bicycle" depart="696.65" departLane="best" from="234414041#6" to="-738079513#1"/>
    <trip id="bike170" type="bike_bicycle" depart="700.77" departLane="best" from="-443772305#0" to="-49302758#0"/>
    <trip id="bike171" type="bike_bicycle" depart="704.89" departLane="best" from="-1162811218#0" to="-443027807#1"/>
    <trip id="bike172" type="bike_bicycle" depart="709.01" departLane="best" from="-705248736" to="636404502#1"/>
    <trip id="bike173" type="bike_bicycle" depart="713.14" departLane="best" from="913677167#1" to="-663577415"/>
    <trip id="bike174" type="bike_bicycle" depart="717.26" departLane="best" from="281331620#1" to="1224000612#1"/>
    <trip id="bike175" type="bike_bicycle" depart="721.38" departLane="best" from="921584296#0" to="24395521#19"/>
    <trip id="bike176" type="bike_bicycle" depart="725.50" departLane="best" from="874139931#1" to="-24439930#1"/>
    <trip id="bike177" type="bike_bicycle" depart="729.63" departLane="best" from="1278955263#0" to="-439138545#1"/>
    <trip id="bike178" type="bike_bicycle" depart="733.75" departLane="best" departSpeed="max" from="913577602" to="-633036598#0"/>
    <trip id="bike179" type="bike_bicycle" depart="737.87" departLane="best" from="-24395517#6" to="234415577#8"/>
    <trip id="bike180" type="bike_bicycle" depart="741.99" departLane="best" from="874199606" to="-774510685#1"/>
    <trip id="bike181" type="bike_bicycle" depart="746.11" departLane="best" from="-24439932#7" to="24395517#4"/>
    <trip id="bike182" type="bike_bicycle" depart="750.24" departLane="best" from="1009738285#1" to="-24439932#10"/>
    <trip id="bike183" type="bike_bicycle" depart="754.36" departLane="best" from="-49302767#1" to="-436564174#10"/>
    <trip id="bike184" type="bike_bicycle" depart="758.48" departLane="best" departSpeed="max" from="-1007799493#1" to="85450456#0"/>
    <trip id="bike186" type="bike_bicycle" depart="766.72" departLane="best" departSpeed="max" from="437322873#0" to="-40138389"/>
    <trip id="bike187" type="bike_bicycle" depart="770.85" departLane="best" from="-912830349#0" to="234416385#6"/>
    <trip id="bike188" type="bike_bicycle" depart="774.97" departLane="best" from="282620842#2" to="-913577602"/>
    <trip id="bike189" type="bike_bicycle" depart="779.09" departLane="best" from="-663577417#2" to="589880248"/>
    <trip id="bike190" type="bike_bicycle" depart="783.21" departLane="best" from="436564174#3" to="-705248738"/>
    <trip id="bike191" type="bike_bicycle" depart="787.34" departLane="best" from="-663577416#1" to="132975478"/>
    <trip id="bike192" type="bike_bicycle" depart="791.46" departLane="best" departSpeed="max" from="1107751940#0" to="688934952#1"/>
    <trip id="bike193" type="bike_bicycle" depart="795.58" departLane="best" from="-24439932#15" to="184495320#1"/>
    <trip id="bike194" type="bike_bicycle" depart="799.70" departLane="best" departSpeed="max" from="874174967#0" to="431536385#1"/>
    <trip id="bike195" type="bike_bicycle" depart="803.82" departLane="best" from="704987366#1" to="281331611"/>
    <trip id="bike196" type="bike_bicycle" depart="807.95" departLane="best" from="-649275688#3" to="-24411335#1"/>
    <trip id="bike197" type="bike_bicycle" depart="812.07" departLane="best" from="-1007799493#0" to="-663577417#5"/>
    <trip id="bike198" type="bike_bicycle" depart="816.19" departLane="best" from="1278955261#0" to="-24439932#6"/>
    <trip id="bike199" type="bike_bicycle" depart="820.31" departLane="best" from="281346534" to="24395474#2"/>
    <trip id="bike200" type="bike_bicycle" depart="824.44" departLane="best" from="184279433#0" to="443772306#7"/>
    <trip id="bike202" type="bike_bicycle" depart="832.68" departLane="best" from="443772305#1" to="436564174#4"/>
    <trip id="bike203" type="bike_bicycle" depart="836.80" departLane="best" from="-243504237#4" to="24395518#0"/>
    <trip id="bike204" type="bike_bicycle" depart="840.92" departLane="best" from="281310228" to="-970971106"/>
    <trip id="bike205" type="bike_bicycle" depart="845.05" departLane="best" from="49302758#3" to="441084455#2"/>
    <trip id="bike206" type="bike_bicycle" depart="849.17" departLane="best" from="401018405#0" to="49302750#6"/>
    <trip id="bike207" type="bike_bicycle" depart="853.29" departLane="best" from="-439138545#0" to="-1162937876"/>
    <trip id="bike208" type="bike_bicycle" depart="857.41" departLane="best" from="-49302750#5" to="24395491#3"/>
    <trip id="bike209" type="bike_bicycle" depart="861.53" departLane="best" from="49540967#1" to="-243504222#0"/>
    <trip id="bike210" type="bike_bicycle" depart="865.66" departLane="best" from="1163644562" to="281333091"/>
    <trip id="bike211" type="bike_bicycle" depart="869.78" departLane="best" from="436564174#5" to="436421210#6"/>
    <trip id="bike212" type="bike_bicycle" depart="873.90" departLane="best" from="24395473#0" to="-49302775#2"/>
    <trip id="bike213" type="bike_bicycle" depart="878.02" departLane="best" from="-281346538#1" to="-1107608488#0"/>
    <trip id="bike214" type="bike_bicycle" depart="882.15" departLane="best" from="439138547#1" to="-443380441#2"/>
    <trip id="bike215" type="bike_bicycle" depart="886.27" departLane="best" from="-24395517#4" to="188795650#1"/>
    <trip id="bike216" type="bike_bicycle" depart="890.39" departLane="best" departSpeed="max" from="-281346544" to="912866257"/>
    <trip id="bike217" type="bike_bicycle" depart="894.51" departLane="best" from="24395496#6" to="-184495320#3"/>
    <trip id="bike218" type="bike_bicycle" depart="898.63" departLane="best" from="49302758#4" to="589880248"/>
    <trip id="bike219" type="bike_bicycle" depart="902.76" departLane="best" from="218316505" to="49302750#6"/>
    <trip id="bike220" type="bike_bicycle" depart="906.88" departLane="best" from="362440932#1" to="956162341#0"/>
    <trip id="bike221" type="bike_bicycle" depart="911.00" departLane="best" from="24439927#2" to="874199605#2"/>
    <trip id="bike222" type="bike_bicycle" depart="915.12" departLane="best" from="666161992" to="-281310233#2"/>
    <trip id="bike223" type="bike_bicycle" depart="919.25" departLane="best" from="436564174#2" to="24395513#3"/>
    <trip id="bike224" type="bike_bicycle" depart="923.37" departLane="best" from="49302772#5" to="24411335#1"/>
    <trip id="bike225" type="bike_bicycle" depart="927.49" departLane="best" from="688934952#1" to="439138548#1"/>
    <trip id="bike226" type="bike_bicycle" depart="931.61" departLane="best" from="243504222#0" to="-506555355#0"/>
    <trip id="bike227" type="bike_bicycle" depart="935.73" departLane="best" from="49302758#1" to="281334461#0"/>
    <trip id="bike228" type="bike_bicycle" depart="939.86" departLane="best" from="442066694#1" to="24395518#9"/>
    <trip id="bike229" type="bike_bicycle" depart="943.98" departLane="best" from="258491138#7" to="-663502819#0"/>
    <trip id="bike230" type="bike_bicycle" depart="948.10" departLane="best" from="24332864#1" to="-663577417#3"/>
    <trip id="bike231" type="bike_bicycle" depart="952.22" departLane="best" departSpeed="max" from="-49540883#2" to="-866989141#0"/>
    <trip id="bike232" type="bike_bicycle" depart="956.34" departLane="best" from="-24395517#7" to="-281331620#1"/>
    <trip id="bike233" type="bike_bicycle" depart="960.47" departLane="best" from="443772305#2" to="436421210#3"/>
    <trip id="bike234" type="bike_bicycle" depart="964.59" departLane="best" from="436564138#10" to="-234415577#2"/>
    <trip id="bike235" type="bike_bicycle" depart="968.71" departLane="best" from="1162811220#0" to="-24404181"/>
    <trip id="bike236" type="bike_bicycle" depart="972.83" departLane="best" departSpeed="max" from="1163723741" to="-443380448#7"/>
    <trip id="bike237" type="bike_bicycle" depart="976.96" departLane="best" from="1184822436" to="-738079511#1"/>
    <trip id="bike238" type="bike_bicycle" depart="981.08" departLane="best" from="24439915#7" to="436421210#5"/>
    <trip id="bike239" type="bike_bicycle" depart="985.20" departLane="best" from="508546925#0" to="-443027807#1"/>
    <trip id="bike240" type="bike_bicycle" depart="989.32" departLane="best" from="-970973326#8" to="-1107608488#0"/>
    <trip id="bike241" type="bike_bicycle" depart="993.44" departLane="best" from="-866958563#0" to="-441954987#1"/>
    <trip id="bike242" type="bike_bicycle" depart="997.57" departLane="best" from="-506555354#1" to="874199605#7"/>
</routes>
