<?xml version="1.0" encoding="UTF-8"?>

<!-- generated on 2024-07-15 17:36:12.456495 by osmWebWizard.py v1_19_0+0000-baa66a0f364
<configuration>
    <net-file value="C:\Users\Pichau\Desktop\Faculdade\UFC\BOLSA\2024Project\2024-07-15-17-35-13\osm.net.xml.gz"/>
    <output-trip-file value="C:\Users\Pichau\Desktop\Faculdade\UFC\BOLSA\2024Project\2024-07-15-17-35-13\osm.passenger.trips.xml"/>
    <route-file value="C:\Users\Pichau\Desktop\Faculdade\UFC\BOLSA\2024Project\2024-07-15-17-35-13\osm.passenger.rou.xml"/>
    <prefix value="veh"/>
    <trip-attributes value="departLane=&quot;best&quot;"/>
    <fringe-start-attributes value="departSpeed=&quot;max&quot;"/>
    <vehicle-class value="passenger"/>
    <lanes value="True"/>
    <fringe-factor value="8"/>
    <allow-fringe.min-length value="1000.0"/>
    <via-edge-types value="highway.motorway,highway.motorway_link,highway.trunk_link,highway.primary_link,highway.secondary_link,highway.tertiary_link"/>
    <min-distance value="300.0"/>
    <min-distance.fringe value="10.0"/>
    <remove-loops value="True"/>
    <validate value="True"/>
    <end value="1000.0"/>
    <insertion-density value="15.0"/>
</configuration>
-->

<!-- generated on 2024-07-15 17:36:12 by Eclipse SUMO duarouter Version 1.19.0
<configuration xmlns:xsi="http://www.w3.org/2001/XMLSchema-instance" xsi:noNamespaceSchemaLocation="http://sumo.dlr.de/xsd/duarouterConfiguration.xsd">

    <input>
        <net-file value="C:\Users\Pichau\Desktop\Faculdade\UFC\BOLSA\2024Project\2024-07-15-17-35-13\osm.net.xml.gz"/>
        <route-files value="C:\Users\Pichau\Desktop\Faculdade\UFC\BOLSA\2024Project\2024-07-15-17-35-13\osm.passenger.trips.xml"/>
    </input>

    <output>
        <output-file value="C:\Users\Pichau\Desktop\Faculdade\UFC\BOLSA\2024Project\2024-07-15-17-35-13\osm.passenger.trips.xml.tmp"/>
        <alternatives-output value="NUL"/>
        <write-trips value="true"/>
    </output>

    <processing>
        <remove-loops value="true"/>
    </processing>

    <time>
        <begin value="0.0"/>
        <end value="1000.0"/>
    </time>

    <report>
        <no-warnings value="true"/>
        <ignore-errors value="true"/>
        <no-step-log value="true"/>
    </report>

</configuration>
-->

<routes xmlns:xsi="http://www.w3.org/2001/XMLSchema-instance" xsi:noNamespaceSchemaLocation="http://sumo.dlr.de/xsd/routes_file.xsd">
    <vType id="veh_passenger" vClass="passenger"/>
    <trip id="veh0" type="veh_passenger" depart="0.00" departLane="best" from="436860976#6" to="-234414043#0"/>
    <trip id="veh1" type="veh_passenger" depart="2.08" departLane="best" from="192150794" to="1243735272#2"/>
    <trip id="veh2" type="veh_passenger" depart="4.17" departLane="best" from="447971783#0" to="436800847#3"/>
    <trip id="veh3" type="veh_passenger" depart="6.25" departLane="best" from="815057830#1" to="-40136357#1"/>
    <trip id="veh4" type="veh_passenger" depart="8.33" departLane="best" from="24404182#0" to="-234416385#0"/>
    <trip id="veh5" type="veh_passenger" depart="10.42" departLane="best" departSpeed="max" from="-912830349#1" to="281333090"/>
    <trip id="veh6" type="veh_passenger" depart="12.50" departLane="best" departSpeed="max" from="437322873#0" to="401016556#2"/>
    <trip id="veh7" type="veh_passenger" depart="14.59" departLane="best" departSpeed="max" from="-912830349#1" to="436421206#1"/>
    <trip id="veh8" type="veh_passenger" depart="16.67" departLane="best" from="535396896#2" to="-132975482#1"/>
    <trip id="veh9" type="veh_passenger" depart="18.75" departLane="best" from="506555356#1" to="436931475#1"/>
    <trip id="veh10" type="veh_passenger" depart="20.84" departLane="best" from="24395475#0" to="-49302777#4"/>
    <trip id="veh12" type="veh_passenger" depart="25.00" departLane="best" departSpeed="max" from="-281331619" to="-437322875#3"/>
    <trip id="veh13" type="veh_passenger" depart="27.09" departLane="best" departSpeed="max" from="671060625#0" to="436421209"/>
    <trip id="veh14" type="veh_passenger" depart="29.17" departLane="best" from="508310160" to="442066694#1"/>
    <trip id="veh15" type="veh_passenger" depart="31.25" departLane="best" departSpeed="max" from="40136349#0" to="915222975#2"/>
    <trip id="veh17" type="veh_passenger" depart="35.42" departLane="best" from="649275688#4" to="436564138#12"/>
    <trip id="veh18" type="veh_passenger" depart="37.51" departLane="best" from="705241049" to="433611503"/>
    <trip id="veh19" type="veh_passenger" depart="39.59" departLane="best" departSpeed="max" from="443027807#0" to="-243916021#1"/>
    <trip id="veh20" type="veh_passenger" depart="41.67" departLane="best" from="440337930#2" to="24395464#2"/>
    <trip id="veh21" type="veh_passenger" depart="43.76" departLane="best" departSpeed="max" from="-281331611" to="1258678908"/>
    <trip id="veh22" type="veh_passenger" depart="45.84" departLane="best" departSpeed="max" from="-281333090" to="24332864#1"/>
    <trip id="veh23" type="veh_passenger" depart="47.92" departLane="best" from="436860976#3" to="24395508#9"/>
    <trip id="veh24" type="veh_passenger" depart="50.01" departLane="best" departSpeed="max" from="24395508#0" to="1028711011#4"/>
    <trip id="veh25" type="veh_passenger" depart="52.09" departLane="best" from="184279433#4" to="912909036#0"/>
    <trip id="veh26" type="veh_passenger" depart="54.17" departLane="best" departSpeed="max" from="437322873#0" to="436421210#4"/>
    <trip id="veh27" type="veh_passenger" depart="56.26" departLane="best" departSpeed="max" from="-49302767#2" to="442066694#0"/>
    <trip id="veh28" type="veh_passenger" depart="58.34" departLane="best" from="-49302758#2" to="24395516#1"/>
    <trip id="veh29" type="veh_passenger" depart="60.43" departLane="best" from="956162341#1" to="436564138#9"/>
    <trip id="veh30" type="veh_passenger" depart="62.51" departLane="best" departSpeed="max" from="671060625#0" to="49302766#0"/>
    <trip id="veh31" type="veh_passenger" depart="64.59" departLane="best" departSpeed="max" from="1046231850#0" to="-234416385#0"/>
    <trip id="veh32" type="veh_passenger" depart="66.68" departLane="best" from="-663577417#6" to="913577600#1"/>
    <trip id="veh33" type="veh_passenger" depart="68.76" departLane="best" departSpeed="max" from="739013055#0" to="24395475#1"/>
    <trip id="veh34" type="veh_passenger" depart="70.84" departLane="best" departSpeed="max" from="437322875#0" to="24395520#3"/>
    <trip id="veh35" type="veh_passenger" depart="72.93" departLane="best" from="874181832#1" to="24441635#2"/>
    <trip id="veh36" type="veh_passenger" depart="75.01" departLane="best" from="436421206#2" to="234414041#1"/>
    <trip id="veh37" type="veh_passenger" depart="77.09" departLane="best" from="436564138#3" to="874199604#2"/>
    <trip id="veh38" type="veh_passenger" depart="79.18" departLane="best" from="24395518#7" to="1184830989"/>
    <trip id="veh39" type="veh_passenger" depart="81.26" departLane="best" departSpeed="max" from="976794425#0" to="281333093#0"/>
    <trip id="veh40" type="veh_passenger" depart="83.35" departLane="best" departSpeed="max" from="-281331619" to="-24395473#0"/>
    <trip id="veh41" type="veh_passenger" depart="85.43" departLane="best" from="-281333095#3" to="436564138#13"/>
    <trip id="veh42" type="veh_passenger" depart="87.51" departLane="best" departSpeed="max" from="49540948#0" to="24439915#10"/>
    <trip id="veh43" type="veh_passenger" depart="89.60" departLane="best" from="24441637#1" to="24395517#4"/>
    <trip id="veh44" type="veh_passenger" depart="91.68" departLane="best" departSpeed="max" from="976794425#0" to="281346545"/>
    <trip id="veh45" type="veh_passenger" depart="93.76" departLane="best" from="874199602#0" to="1184830989"/>
    <trip id="veh46" type="veh_passenger" depart="95.85" departLane="best" from="-132975482#3" to="439138548#2"/>
    <trip id="veh47" type="veh_passenger" depart="97.93" departLane="best" from="440337931#2" to="362440932#0"/>
    <trip id="veh48" type="veh_passenger" depart="100.01" departLane="best" from="184279433#4" to="436564173#1"/>
    <trip id="veh49" type="veh_passenger" depart="102.10" departLane="best" departSpeed="max" from="-281334459#1" to="24439925#5"/>
    <trip id="veh50" type="veh_passenger" depart="104.18" departLane="best" from="24439932#11" to="913677254"/>
    <trip id="veh51" type="veh_passenger" depart="106.27" departLane="best" departSpeed="max" from="739013055#0" to="-234414041#2"/>
    <trip id="veh52" type="veh_passenger" depart="108.35" departLane="best" from="281332123" to="-663577414"/>
    <trip id="veh54" type="veh_passenger" depart="112.52" departLane="best" from="-234415577#2" to="436564138#9"/>
    <trip id="veh55" type="veh_passenger" depart="114.60" departLane="best" from="436564174#3" to="-49302776#1"/>
    <trip id="veh56" type="veh_passenger" depart="116.68" departLane="best" departSpeed="max" from="49302760" to="371222311"/>
    <trip id="veh57" type="veh_passenger" depart="118.77" departLane="best" from="-642309794#0" to="281346545"/>
    <trip id="veh58" type="veh_passenger" depart="120.85" departLane="best" departSpeed="max" from="-1007799493#1" to="24395492#10"/>
    <trip id="veh59" type="veh_passenger" depart="122.94" departLane="best" from="-234414041#6" to="874199605#8"/>
    <trip id="veh60" type="veh_passenger" depart="125.02" departLane="best" from="741318238" to="633036596#1"/>
    <trip id="veh61" type="veh_passenger" depart="127.10" departLane="best" from="436707524#1" to="-24439930#0"/>
    <trip id="veh62" type="veh_passenger" depart="129.19" departLane="best" from="739013055#1" to="913577601"/>
    <trip id="veh63" type="veh_passenger" depart="131.27" departLane="best" from="-276301089" to="443772306#2"/>
    <trip id="veh64" type="veh_passenger" depart="133.35" departLane="best" from="49302766#1" to="49302750#3"/>
    <trip id="veh65" type="veh_passenger" depart="135.44" departLane="best" departSpeed="max" from="258491138#0" to="401018405#1"/>
    <trip id="veh66" type="veh_passenger" depart="137.52" departLane="best" from="184279433#0" to="760776542#0"/>
    <trip id="veh67" type="veh_passenger" depart="139.60" departLane="best" from="24404182#2" to="1062163234"/>
    <trip id="veh69" type="veh_passenger" depart="143.77" departLane="best" from="663502819#1" to="24395475#1"/>
    <trip id="veh70" type="veh_passenger" depart="145.86" departLane="best" from="24439915#7" to="281334459#1"/>
    <trip id="veh71" type="veh_passenger" depart="147.94" departLane="best" departSpeed="max" from="-281346545" to="1243735272#3"/>
    <trip id="veh72" type="veh_passenger" depart="150.02" departLane="best" from="24395474#6" to="436421206#1"/>
    <trip id="veh73" type="veh_passenger" depart="152.11" departLane="best" departSpeed="max" from="1046231850#0" to="1184830989"/>
    <trip id="veh74" type="veh_passenger" depart="154.19" departLane="best" departSpeed="max" from="-276330566#4" to="436564138#2"/>
    <trip id="veh76" type="veh_passenger" depart="158.36" departLane="best" from="704987366#1" to="-281331620#0"/>
    <trip id="veh77" type="veh_passenger" depart="160.44" departLane="best" from="1184830988#1" to="436787889#0"/>
    <trip id="veh78" type="veh_passenger" depart="162.52" departLane="best" from="-774510685#3" to="-49302758#0"/>
    <trip id="veh79" type="veh_passenger" depart="164.61" departLane="best" from="874199605#9" to="40138395#2"/>
    <trip id="veh80" type="veh_passenger" depart="166.69" departLane="best" from="-24441637#3" to="49302772#3"/>
    <trip id="veh81" type="veh_passenger" depart="168.78" departLane="best" from="508546925#0" to="-912830349#0"/>
    <trip id="veh82" type="veh_passenger" depart="170.86" departLane="best" departSpeed="max" from="-281333087" to="24439924#2"/>
    <trip id="veh83" type="veh_passenger" depart="172.94" departLane="best" from="24404182#2" to="258491138#11"/>
    <trip id="veh85" type="veh_passenger" depart="177.11" departLane="best" from="24395520#11" to="24395492#17"/>
    <trip id="veh86" type="veh_passenger" depart="179.19" departLane="best" from="705241049" to="132975486"/>
    <trip id="veh88" type="veh_passenger" depart="183.36" departLane="best" from="24404182#0" to="243504222#0"/>
    <trip id="veh89" type="veh_passenger" depart="185.44" departLane="best" from="1278955261#2" to="874199605#2"/>
    <trip id="veh90" type="veh_passenger" depart="187.53" departLane="best" from="24439925#1" to="693895752#1"/>
    <trip id="veh91" type="veh_passenger" depart="189.61" departLane="best" from="434237040#2" to="24395517#0"/>
    <trip id="veh92" type="veh_passenger" depart="191.70" departLane="best" departSpeed="max" from="976794425#0" to="642309794#1"/>
    <trip id="veh93" type="veh_passenger" depart="193.78" departLane="best" from="914794302" to="874199605#5"/>
    <trip id="veh94" type="veh_passenger" depart="195.86" departLane="best" departSpeed="max" from="671060625#0" to="-49540948#0"/>
    <trip id="veh96" type="veh_passenger" depart="200.03" departLane="best" from="24395520#0" to="-24439931#0"/>
    <trip id="veh97" type="veh_passenger" depart="202.11" departLane="best" from="184279433#0" to="-49302772#2"/>
    <trip id="veh98" type="veh_passenger" depart="204.20" departLane="best" from="24439932#15" to="24439915#13"/>
    <trip id="veh100" type="veh_passenger" depart="208.36" departLane="best" from="436421202#5" to="439138548#0"/>
    <trip id="veh101" type="veh_passenger" depart="210.45" departLane="best" from="443772305#2" to="24395466#2"/>
    <trip id="veh102" type="veh_passenger" depart="212.53" departLane="best" from="914794302" to="434237040#1"/>
    <trip id="veh103" type="veh_passenger" depart="214.62" departLane="best" from="40138394#0" to="443380444"/>
    <trip id="veh104" type="veh_passenger" depart="216.70" departLane="best" from="24439924#1" to="436421202#4"/>
    <trip id="veh105" type="veh_passenger" depart="218.78" departLane="best" from="281333095#1" to="-663577417#5"/>
    <trip id="veh106" type="veh_passenger" depart="220.87" departLane="best" from="-443772306#7" to="914795390#1"/>
    <trip id="veh107" type="veh_passenger" depart="222.95" departLane="best" departSpeed="max" from="436564174#0" to="436800847#2"/>
    <trip id="veh108" type="veh_passenger" depart="225.03" departLane="best" from="1184822435" to="-443380448#5"/>
    <trip id="veh109" type="veh_passenger" depart="227.12" departLane="best" from="815057830#0" to="-132975482#2"/>
    <trip id="veh110" type="veh_passenger" depart="229.20" departLane="best" from="24395521#8" to="436421202#3"/>
    <trip id="veh111" type="veh_passenger" depart="231.28" departLane="best" from="362440932#1" to="912830349#1"/>
    <trip id="veh112" type="veh_passenger" depart="233.37" departLane="best" from="-663577415" to="439138547#0"/>
    <trip id="veh113" type="veh_passenger" depart="235.45" departLane="best" from="439138547#0" to="24395474#1"/>
    <trip id="veh114" type="veh_passenger" depart="237.54" departLane="best" departSpeed="max" from="243504225#0" to="443380448#7"/>
    <trip id="veh115" type="veh_passenger" depart="239.62" departLane="best" departSpeed="max" from="-276330566#4" to="24441635#2"/>
    <trip id="veh116" type="veh_passenger" depart="241.70" departLane="best" departSpeed="max" from="976794425#0" to="956162341#4"/>
    <trip id="veh117" type="veh_passenger" depart="243.79" departLane="best" departSpeed="max" from="-276330566#4" to="1062163234"/>
    <trip id="veh118" type="veh_passenger" depart="245.87" departLane="best" from="184279433#0" to="912830349#1"/>
    <trip id="veh119" type="veh_passenger" depart="247.95" departLane="best" from="760776542#0" to="769199608#3"/>
    <trip id="veh121" type="veh_passenger" depart="252.12" departLane="best" from="-663577413" to="-437322875#1"/>
    <trip id="veh122" type="veh_passenger" depart="254.20" departLane="best" from="436564174#6" to="927781677"/>
    <trip id="veh123" type="veh_passenger" depart="256.29" departLane="best" from="437322873#2" to="-132975482#4"/>
    <trip id="veh124" type="veh_passenger" depart="258.37" departLane="best" departSpeed="max" from="633036592" to="24395474#1"/>
    <trip id="veh125" type="veh_passenger" depart="260.46" departLane="best" departSpeed="max" from="437374815#0" to="913577600#1"/>
    <trip id="veh127" type="veh_passenger" depart="264.62" departLane="best" departSpeed="max" from="-281333093#1" to="40136349#2"/>
    <trip id="veh128" type="veh_passenger" depart="266.71" departLane="best" from="184495322#1" to="436421210#0"/>
    <trip id="veh129" type="veh_passenger" depart="268.79" departLane="best" departSpeed="max" from="443380441#0" to="1009738286"/>
    <trip id="veh130" type="veh_passenger" depart="270.87" departLane="best" from="436860976#1" to="234414041#5"/>
    <trip id="veh131" type="veh_passenger" depart="272.96" departLane="best" from="-281310233#0" to="874199604#4"/>
    <trip id="veh132" type="veh_passenger" depart="275.04" departLane="best" departSpeed="max" from="671060625#0" to="-437322875#0"/>
    <trip id="veh133" type="veh_passenger" depart="277.12" departLane="best" from="24404182#2" to="243228724#1"/>
    <trip id="veh134" type="veh_passenger" depart="279.21" departLane="best" departSpeed="max" from="-1007799493#1" to="49302750#6"/>
    <trip id="veh137" type="veh_passenger" depart="285.46" departLane="best" from="24411335#2" to="-184277969"/>
    <trip id="veh138" type="veh_passenger" depart="287.54" departLane="best" from="-281310233#1" to="815057830#0"/>
    <trip id="veh139" type="veh_passenger" depart="289.63" departLane="best" departSpeed="max" from="874174967#0" to="436860976#5"/>
    <trip id="veh140" type="veh_passenger" depart="291.71" departLane="best" from="663577415" to="436412311"/>
    <trip id="veh141" type="veh_passenger" depart="293.79" departLane="best" from="-443380441#3" to="49302750#1"/>
    <trip id="veh142" type="veh_passenger" depart="295.88" departLane="best" from="243228616#1" to="874199604#3"/>
    <trip id="veh143" type="veh_passenger" depart="297.96" departLane="best" from="-49540948#1" to="1184830989"/>
    <trip id="veh144" type="veh_passenger" depart="300.04" departLane="best" departSpeed="max" from="874174967#0" to="1062163234"/>
    <trip id="veh145" type="veh_passenger" depart="302.13" departLane="best" from="1278955261#2" to="-443027807#0"/>
    <trip id="veh146" type="veh_passenger" depart="304.21" departLane="best" from="49302777#2" to="762516996#1"/>
    <trip id="veh147" type="veh_passenger" depart="306.30" departLane="best" from="24395520#7" to="436564138#13"/>
    <trip id="veh148" type="veh_passenger" depart="308.38" departLane="best" from="705248737" to="-921584298"/>
    <trip id="veh149" type="veh_passenger" depart="310.46" departLane="best" from="535396897#2" to="-774510685#4"/>
    <trip id="veh150" type="veh_passenger" depart="312.55" departLane="best" departSpeed="max" from="-234415577#9" to="442913601#1"/>
    <trip id="veh151" type="veh_passenger" depart="314.63" departLane="best" from="24395474#0" to="874199606"/>
    <trip id="veh152" type="veh_passenger" depart="316.71" departLane="best" from="49540967#5" to="704987366#1"/>
    <trip id="veh153" type="veh_passenger" depart="318.80" departLane="best" from="535396897#2" to="234415577#8"/>
    <trip id="veh154" type="veh_passenger" depart="320.88" departLane="best" departSpeed="max" from="49540860#0" to="-443194826#0"/>
    <trip id="veh155" type="veh_passenger" depart="322.97" departLane="best" departSpeed="max" from="739013055#0" to="693895752#0"/>
    <trip id="veh156" type="veh_passenger" depart="325.05" departLane="best" from="-1007799493#0" to="590528032#1"/>
    <trip id="veh157" type="veh_passenger" depart="327.13" departLane="best" from="24441602#1" to="24395474#7"/>
    <trip id="veh158" type="veh_passenger" depart="329.22" departLane="best" departSpeed="max" from="49540948#0" to="1258678907"/>
    <trip id="veh159" type="veh_passenger" depart="331.30" departLane="best" departSpeed="max" from="-234415577#9" to="-976794425#0"/>
    <trip id="veh160" type="veh_passenger" depart="333.38" departLane="best" departSpeed="max" from="24395471#0" to="704987367"/>
    <trip id="veh161" type="veh_passenger" depart="335.47" departLane="best" from="914794301" to="-243504222#2"/>
    <trip id="veh162" type="veh_passenger" depart="337.55" departLane="best" from="436860978#0" to="24395521#11"/>
    <trip id="veh163" type="veh_passenger" depart="339.63" departLane="best" from="-663577417#0" to="-316464545#1"/>
    <trip id="veh164" type="veh_passenger" depart="341.72" departLane="best" from="912909036#1" to="-443380441#0"/>
    <trip id="veh165" type="veh_passenger" depart="343.80" departLane="best" from="914794303" to="-663577414"/>
    <trip id="veh166" type="veh_passenger" depart="345.89" departLane="best" from="913677167#1" to="-234415577#1"/>
    <trip id="veh167" type="veh_passenger" depart="347.97" departLane="best" from="-281333095#0" to="24439925#4"/>
    <trip id="veh168" type="veh_passenger" depart="350.05" departLane="best" from="443772304#3" to="24395475#1"/>
    <trip id="veh169" type="veh_passenger" depart="352.14" departLane="best" from="436564174#13" to="281333093#1"/>
    <trip id="veh170" type="veh_passenger" depart="354.22" departLane="best" from="24395508#9" to="433611503"/>
    <trip id="veh171" type="veh_passenger" depart="356.30" departLane="best" from="1278955263#0" to="437770938"/>
    <trip id="veh172" type="veh_passenger" depart="358.39" departLane="best" departSpeed="max" from="-1007799493#1" to="874199605#4"/>
    <trip id="veh173" type="veh_passenger" depart="360.47" departLane="best" from="40136349#1" to="439138548#1"/>
    <trip id="veh174" type="veh_passenger" depart="362.55" departLane="best" departSpeed="max" from="474813980#0" to="436787889#1"/>
    <trip id="veh175" type="veh_passenger" depart="364.64" departLane="best" from="24395496#1" to="-281331620#0"/>
    <trip id="veh176" type="veh_passenger" depart="366.72" departLane="best" departSpeed="max" from="437374815#0" to="24395492#17"/>
    <trip id="veh177" type="veh_passenger" depart="368.81" departLane="best" from="243504224#1" to="663577416#1"/>
    <trip id="veh178" type="veh_passenger" depart="370.89" departLane="best" from="-443380441#3" to="24395474#1"/>
    <trip id="veh179" type="veh_passenger" depart="372.97" departLane="best" from="243228724#1" to="24404182#0"/>
    <trip id="veh180" type="veh_passenger" depart="375.06" departLane="best" from="24395520#11" to="24395466#2"/>
    <trip id="veh181" type="veh_passenger" depart="377.14" departLane="best" departSpeed="max" from="-371222311" to="24439902#0"/>
    <trip id="veh182" type="veh_passenger" depart="379.22" departLane="best" from="913577600#0" to="436800847#3"/>
    <trip id="veh183" type="veh_passenger" depart="381.31" departLane="best" departSpeed="max" from="874174967#0" to="436564138#10"/>
    <trip id="veh184" type="veh_passenger" depart="383.39" departLane="best" departSpeed="max" from="234416385#0" to="401016556#5"/>
    <trip id="veh185" type="veh_passenger" depart="385.47" departLane="best" from="-1007799493#0" to="24395460#4"/>
    <trip id="veh186" type="veh_passenger" depart="387.56" departLane="best" departSpeed="max" from="437322875#0" to="24441637#4"/>
    <trip id="veh187" type="veh_passenger" depart="389.64" departLane="best" from="24439924#5" to="1062163234"/>
    <trip id="veh188" type="veh_passenger" depart="391.73" departLane="best" from="24441638#0" to="874199604#4"/>
    <trip id="veh189" type="veh_passenger" depart="393.81" departLane="best" from="-49540948#1" to="-535396897#1"/>
    <trip id="veh190" type="veh_passenger" depart="395.89" departLane="best" departSpeed="max" from="-281331615#1" to="281333095#3"/>
    <trip id="veh191" type="veh_passenger" depart="397.98" departLane="best" from="436860976#0" to="24395492#17"/>
    <trip id="veh192" type="veh_passenger" depart="400.06" departLane="best" departSpeed="max" from="633036592" to="-443380448#5"/>
    <trip id="veh193" type="veh_passenger" depart="402.14" departLane="best" from="439138547#1" to="1243735272#3"/>
    <trip id="veh194" type="veh_passenger" depart="404.23" departLane="best" from="-642309794#0" to="-234414043#0"/>
    <trip id="veh195" type="veh_passenger" depart="406.31" departLane="best" from="1243735272#3" to="276305701"/>
    <trip id="veh196" type="veh_passenger" depart="408.39" departLane="best" from="671060625#1" to="-281333088"/>
    <trip id="veh197" type="veh_passenger" depart="410.48" departLane="best" from="24395521#17" to="436564138#13"/>
    <trip id="veh198" type="veh_passenger" depart="412.56" departLane="best" from="-633036598#3" to="436931475#1"/>
    <trip id="veh199" type="veh_passenger" depart="414.65" departLane="best" from="-281331615#0" to="132975480#0"/>
    <trip id="veh200" type="veh_passenger" depart="416.73" departLane="best" departSpeed="max" from="437322875#0" to="-132975476"/>
    <trip id="veh201" type="veh_passenger" depart="418.81" departLane="best" departSpeed="max" from="-281333093#1" to="24439915#13"/>
    <trip id="veh202" type="veh_passenger" depart="420.90" departLane="best" from="49302775#3" to="914794302"/>
    <trip id="veh203" type="veh_passenger" depart="422.98" departLane="best" departSpeed="max" from="316464545#0" to="24395517#0"/>
    <trip id="veh204" type="veh_passenger" depart="425.06" departLane="best" from="1278955261#2" to="663577416#1"/>
    <trip id="veh205" type="veh_passenger" depart="427.15" departLane="best" from="24439932#3" to="49540967#2"/>
    <trip id="veh206" type="veh_passenger" depart="429.23" departLane="best" from="437374815#1" to="927781677"/>
    <trip id="veh207" type="veh_passenger" depart="431.31" departLane="best" departSpeed="max" from="436564174#0" to="913677166"/>
    <trip id="veh208" type="veh_passenger" depart="433.40" departLane="best" from="815057830#0" to="436564138#0"/>
    <trip id="veh209" type="veh_passenger" depart="435.48" departLane="best" from="-443380441#3" to="281333088"/>
    <trip id="veh210" type="veh_passenger" depart="437.57" departLane="best" from="649275688#5" to="401016556#5"/>
    <trip id="veh211" type="veh_passenger" depart="439.65" departLane="best" from="85450456#0" to="-443027807#1"/>
    <trip id="veh212" type="veh_passenger" depart="441.73" departLane="best" departSpeed="max" from="258491138#0" to="218314805#1"/>
    <trip id="veh213" type="veh_passenger" depart="443.82" departLane="best" from="1258678907" to="436564138#8"/>
    <trip id="veh214" type="veh_passenger" depart="445.90" departLane="best" from="49302766#1" to="281334461#1"/>
    <trip id="veh215" type="veh_passenger" depart="447.98" departLane="best" from="436800847#1" to="243228616#0"/>
    <trip id="veh216" type="veh_passenger" depart="450.07" departLane="best" departSpeed="max" from="-281331611" to="243916021#1"/>
    <trip id="veh217" type="veh_passenger" depart="452.15" departLane="best" from="184495320#3" to="-24395491#3"/>
    <trip id="veh218" type="veh_passenger" depart="454.23" departLane="best" from="40136357#0" to="-49302760"/>
    <trip id="veh219" type="veh_passenger" depart="456.32" departLane="best" departSpeed="max" from="1046231850#0" to="436931475#1"/>
    <trip id="veh220" type="veh_passenger" depart="458.40" departLane="best" departSpeed="max" from="443027807#0" to="-281310230"/>
    <trip id="veh221" type="veh_passenger" depart="460.49" departLane="best" from="24395520#9" to="371222311"/>
    <trip id="veh222" type="veh_passenger" depart="462.57" departLane="best" from="24395521#2" to="1028711011#4"/>
    <trip id="veh223" type="veh_passenger" depart="464.65" departLane="best" from="24404181" to="874199604#4"/>
    <trip id="veh224" type="veh_passenger" depart="466.74" departLane="best" from="436564138#3" to="436931475#1"/>
    <trip id="veh225" type="veh_passenger" depart="468.82" departLane="best" from="693895752#1" to="447971783#1"/>
    <trip id="veh226" type="veh_passenger" depart="470.90" departLane="best" from="24395508#17" to="-132975482#0"/>
    <trip id="veh227" type="veh_passenger" depart="472.99" departLane="best" from="24395492#13" to="443772304#0"/>
    <trip id="veh228" type="veh_passenger" depart="475.07" departLane="best" from="693895751#1" to="913677254"/>
    <trip id="veh229" type="veh_passenger" depart="477.15" departLane="best" from="24395521#7" to="-443380441#3"/>
    <trip id="veh230" type="veh_passenger" depart="479.24" departLane="best" from="431536385#0" to="436421208#3"/>
    <trip id="veh231" type="veh_passenger" depart="481.32" departLane="best" from="914815911" to="1184830989"/>
    <trip id="veh232" type="veh_passenger" depart="483.41" departLane="best" from="24439915#10" to="234415577#8"/>
    <trip id="veh233" type="veh_passenger" depart="485.49" departLane="best" from="24395474#4" to="436860976#0"/>
    <trip id="veh234" type="veh_passenger" depart="487.57" departLane="best" from="24395520#3" to="-49540860#3"/>
    <trip id="veh235" type="veh_passenger" depart="489.66" departLane="best" from="436800847#2" to="-49302750#2"/>
    <trip id="veh236" type="veh_passenger" depart="491.74" departLane="best" from="436787889#0" to="-234414043#0"/>
    <trip id="veh237" type="veh_passenger" depart="493.82" departLane="best" from="-24395517#4" to="40138394#0"/>
    <trip id="veh238" type="veh_passenger" depart="495.91" departLane="best" from="234416385#2" to="436564173#1"/>
    <trip id="veh239" type="veh_passenger" depart="497.99" departLane="best" from="-437322875#3" to="24441637#3"/>
    <trip id="veh240" type="veh_passenger" depart="500.07" departLane="best" from="-24395517#6" to="24395516#1"/>
    <trip id="veh241" type="veh_passenger" depart="502.16" departLane="best" from="-705218284" to="24395492#16"/>
    <trip id="veh242" type="veh_passenger" depart="504.24" departLane="best" departSpeed="max" from="49302760" to="24395516#1"/>
    <trip id="veh243" type="veh_passenger" depart="506.33" departLane="best" from="49302750#7" to="633036596#1"/>