<?xml version="1.0" encoding="UTF-8"?>

<!-- generated on 2024-07-15 17:36:06.758947 by $Id: ptlines2flows.py v1_3_1+0313-ccb31df3eb jakob.erdmann@dlr.de 2019-09-02 13:26:32 +0200 $ v1_19_0+0000-baa66a0f364
<configuration>
    <net-file value="C:\Users\Pichau\Desktop\Faculdade\UFC\BOLSA\2024Project\2024-07-15-17-35-13\osm.net.xml.gz"/>
    <ptlines-file value="C:\Users\Pichau\Desktop\Faculdade\UFC\BOLSA\2024Project\2024-07-15-17-35-13\osm_ptlines.xml"/>
    <ptstops-file value="C:\Users\Pichau\Desktop\Faculdade\UFC\BOLSA\2024Project\2024-07-15-17-35-13\osm_stops.add.xml"/>
    <output-file value="C:\Users\Pichau\Desktop\Faculdade\UFC\BOLSA\2024Project\2024-07-15-17-35-13\osm_pt.rou.xml"/>
    <stopinfos-file value="C:\Users\Pichau\Desktop\Faculdade\UFC\BOLSA\2024Project\2024-07-15-17-35-13\stopinfos.xml"/>
    <routes-file value="C:\Users\Pichau\Desktop\Faculdade\UFC\BOLSA\2024Project\2024-07-15-17-35-13\vehroutes.xml"/>
    <trips-file value="C:\Users\Pichau\Desktop\Faculdade\UFC\BOLSA\2024Project\2024-07-15-17-35-13\trips.trips.xml"/>
    <end value="1000.0"/>
    <min-stops value="0"/>
    <extend-to-fringe value="True"/>
    <random-begin value="True"/>
    <seed value="42"/>
    <ignore-errors value="True"/>
    <vtype-prefix value="pt_"/>
    <verbose value="True"/>
</configuration>
-->

<routes xmlns:xsi="http://www.w3.org/2001/XMLSchema-instance" xsi:noNamespaceSchemaLocation="http://sumo.dlr.de/xsd/routes_file.xsd">
    <vType id="pt_bus" vClass="bus" speedFactor="0.95"/>
    <vType id="pt_tram" vClass="tram" speedFactor="1.0"/>
    <vType id="pt_train" vClass="rail"/>
    <vType id="pt_subway" vClass="rail_urban"/>
    <vType id="pt_light_rail" vClass="rail_urban"/>
    <vType id="pt_monorail" vClass="rail_urban"/>
    <vType id="pt_trolleybus" vClass="bus" speedFactor="0.95"/>
    <vType id="pt_minibus" vClass="bus" speedFactor="0.95"/>
    <vType id="pt_share_taxi" vClass="taxi" speedFactor="0.95"/>
    <vType id="pt_aerialway" vClass="rail_urban" length="2.5" width="2" personCapacity="4"/>
    <vType id="pt_ferry" vClass="ship"/>
    <trip id="0_subway_Sul:0" type="pt_subway" depart="15.0" departLane="best" from="24302361" to="24302361">
        <stop busStop="4102886828" duration="30"/>
        <stop busStop="6943844384" duration="30"/>
        <stop busStop="6943871010" duration="30"/>
        <stop busStop="6943871013" duration="30"/>
        <stop busStop="6943871025" duration="30"/>
    </trip>
    <trip id="1_subway_Sul:1" type="pt_subway" depart="383.0" departLane="best" from="-741761106" to="-741761106">
        <stop busStop="-2865636521" duration="30"/>
        <stop busStop="-8984214502" duration="30"/>
        <stop busStop="-7085050924" duration="30"/>
        <stop busStop="-2865636511" duration="30"/>
        <stop busStop="4102886827" duration="30"/>
    </trip>
</routes>
